 
data_f
 
_audit_creation_method            'SHELXL-2018/3'
_shelx_SHELXL_version_number      '2018/3'
_chemical_name_systematic         ?
_chemical_name_common             ?
_chemical_melting_point           ?
_chemical_formula_moiety          ?
_chemical_formula_sum
 'C24 H30 Fe2 N8 O20' 
_chemical_formula_weight          862.26

loop_
 _atom_type_symbol
 _atom_type_description
 _atom_type_scat_dispersion_real
 _atom_type_scat_dispersion_imag
 _atom_type_scat_source
 'C'  'C'   0.0033   0.0016
 'International Tables Vol C Tables 4.2.6.8 and 6.1.1.4'
 'H'  'H'   0.0000   0.0000
 'International Tables Vol C Tables 4.2.6.8 and 6.1.1.4'
 'N'  'N'   0.0061   0.0033
 'International Tables Vol C Tables 4.2.6.8 and 6.1.1.4'
 'O'  'O'   0.0106   0.0060
 'International Tables Vol C Tables 4.2.6.8 and 6.1.1.4'
 'Fe'  'Fe'   0.3463   0.8444
 'International Tables Vol C Tables 4.2.6.8 and 6.1.1.4'
 
_space_group_crystal_system       monoclinic
_space_group_IT_number            14
_space_group_name_H-M_alt         'P 21/c'
_space_group_name_Hall            '-P 2ybc'
 
_shelx_space_group_comment
;
The symmetry employed for this shelxl refinement is uniquely defined
by the following loop, which should always be used as a source of
symmetry information in preference to the above space-group names.
They are only intended as comments.
;
 
loop_
 _space_group_symop_operation_xyz
 'x, y, z'
 '-x, y+1/2, -z+1/2'
 '-x, -y, -z'
 'x, -y-1/2, z-1/2'
 
_cell_length_a                    17.8863(6)
_cell_length_b                    9.8520(4)
_cell_length_c                    19.1918(7)
_cell_angle_alpha                 90
_cell_angle_beta                  95.345(3)
_cell_angle_gamma                 90
_cell_volume                      3367.2(2)
_cell_formula_units_Z             4
_cell_measurement_temperature     150(2)
_cell_measurement_reflns_used     ?
_cell_measurement_theta_min       ?
_cell_measurement_theta_max       ?
 
_exptl_crystal_description        ?
_exptl_crystal_colour             ?
_exptl_crystal_density_meas       ?
_exptl_crystal_density_method     ?
_exptl_crystal_density_diffrn     1.701          
_exptl_crystal_F_000              1768
_exptl_transmission_factor_min    ?
_exptl_transmission_factor_max    ?
_exptl_crystal_size_max           ?
_exptl_crystal_size_mid           ?
_exptl_crystal_size_min           ?
_exptl_absorpt_coefficient_mu     0.960
_shelx_estimated_absorpt_T_min    ?
_shelx_estimated_absorpt_T_max    ?
_exptl_absorpt_correction_type    ?
_exptl_absorpt_correction_T_min   ?
_exptl_absorpt_correction_T_max   ?
_exptl_absorpt_process_details    ?
_exptl_absorpt_special_details    ?
_diffrn_ambient_temperature       150(2)
_diffrn_radiation_wavelength      0.71073
_diffrn_radiation_type            MoK\a
_diffrn_source                    ?
_diffrn_measurement_device_type   ?
_diffrn_measurement_method        ?
_diffrn_detector_area_resol_mean  ?
_diffrn_reflns_number             30836
_diffrn_reflns_av_unetI/netI      0.0613
_diffrn_reflns_av_R_equivalents   0.0480
_diffrn_reflns_limit_h_min        -22
_diffrn_reflns_limit_h_max        21
_diffrn_reflns_limit_k_min        -7
_diffrn_reflns_limit_k_max        12
_diffrn_reflns_limit_l_min        -23
_diffrn_reflns_limit_l_max        24
_diffrn_reflns_theta_min          2.132
_diffrn_reflns_theta_max          27.404
_diffrn_reflns_theta_full         25.242
_diffrn_measured_fraction_theta_max   0.937
_diffrn_measured_fraction_theta_full  0.994
_diffrn_reflns_Laue_measured_fraction_max    0.937
_diffrn_reflns_Laue_measured_fraction_full   0.994
_diffrn_reflns_point_group_measured_fraction_max   0.937
_diffrn_reflns_point_group_measured_fraction_full  0.994
_reflns_number_total              7181
_reflns_number_gt                 4830
_reflns_threshold_expression      'I > 2\s(I)'
_reflns_Friedel_coverage          0.000
_reflns_Friedel_fraction_max      .
_reflns_Friedel_fraction_full     .
 
_reflns_special_details
;
 Reflections were merged by SHELXL according to the crystal
 class for the calculation of statistics and refinement.
 
 _reflns_Friedel_fraction is defined as the number of unique
 Friedel pairs measured divided by the number that would be
 possible theoretically, ignoring centric projections and
 systematic absences.
;
 
_computing_data_collection        ?
_computing_cell_refinement        ?
_computing_data_reduction         ?
_computing_structure_solution     'SHELXT 2014/4 (Sheldrick, 2014)'
_computing_structure_refinement 'SHELXL-2018/3 (Sheldrick, 2018)'
_computing_molecular_graphics     ?
_computing_publication_material   ?
_refine_special_details           ?
_refine_ls_structure_factor_coef  Fsqd
_refine_ls_matrix_type            full
_refine_ls_weighting_scheme       calc
_refine_ls_weighting_details
'w=1/[\s^2^(Fo^2^)+(0.0446P)^2^+3.5773P] where P=(Fo^2^+2Fc^2^)/3'
_atom_sites_solution_primary      ?
_atom_sites_solution_secondary    ?
_atom_sites_solution_hydrogens    mixed
_refine_ls_hydrogen_treatment     mixed
_refine_ls_extinction_method      none
_refine_ls_extinction_coef        .
_refine_ls_number_reflns          7181
_refine_ls_number_parameters      529
_refine_ls_number_restraints      0
_refine_ls_R_factor_all           0.0865
_refine_ls_R_factor_gt            0.0493
_refine_ls_wR_factor_ref          0.1203
_refine_ls_wR_factor_gt           0.1047
_refine_ls_goodness_of_fit_ref    1.043
_refine_ls_restrained_S_all       1.043
_refine_ls_shift/su_max           0.005
_refine_ls_shift/su_mean          0.000
 
loop_
 _atom_site_label
 _atom_site_type_symbol
 _atom_site_fract_x
 _atom_site_fract_y
 _atom_site_fract_z
 _atom_site_U_iso_or_equiv
 _atom_site_adp_type
 _atom_site_occupancy
 _atom_site_site_symmetry_order  
 _atom_site_calc_flag
 _atom_site_refinement_flags_posn
 _atom_site_refinement_flags_adp
 _atom_site_refinement_flags_occupancy
 _atom_site_disorder_assembly
 _atom_site_disorder_group
Fe1 Fe 0.83113(3) 0.72339(5) 0.34117(2) 0.02258(13) Uani 1 1 d . . . . .
Fe2 Fe 0.66763(3) 0.53792(5) 0.28842(3) 0.02940(15) Uani 1 1 d . . . . .
O1 O 0.74954(12) 0.6390(2) 0.30153(11) 0.0275(5) Uani 1 1 d . . . . .
O2 O 0.92984(13) 0.8326(2) 0.37597(13) 0.0277(6) Uani 1 1 d . . . . .
H2A H 0.927(2) 0.881(4) 0.412(2) 0.041 Uiso 1 1 d . U . . .
H2B H 0.946(2) 0.887(4) 0.347(2) 0.041 Uiso 1 1 d . U . . .
O3 O 0.79019(15) 0.9093(3) 0.31257(14) 0.0334(6) Uani 1 1 d . . . . .
H3A H 0.751(2) 0.915(4) 0.286(2) 0.050 Uiso 1 1 d . U . . .
H3B H 0.814(2) 0.973(4) 0.306(2) 0.050 Uiso 1 1 d . U . . .
O4 O 0.88860(15) 0.6866(3) 0.25638(13) 0.0290(6) Uani 1 1 d . . . . .
H4A H 0.934(2) 0.701(4) 0.253(2) 0.044 Uiso 1 1 d . U . . .
H4B H 0.880(2) 0.619(4) 0.237(2) 0.044 Uiso 1 1 d . U . . .
O5 O 0.70655(16) 0.4095(3) 0.21694(14) 0.0376(7) Uani 1 1 d . . . . .
H5A H 0.755(2) 0.411(4) 0.211(2) 0.056 Uiso 1 1 d . U . . .
H5B H 0.695(2) 0.331(5) 0.215(2) 0.056 Uiso 1 1 d . U . . .
O6 O 0.61337(17) 0.6618(3) 0.21611(16) 0.0503(8) Uani 1 1 d . . . . .
H6A H 0.576(3) 0.648(5) 0.189(3) 0.075 Uiso 1 1 d . U . . .
H6B H 0.621(3) 0.747(5) 0.217(3) 0.075 Uiso 1 1 d . U . . .
O7 O 0.56969(16) 0.4145(3) 0.26663(17) 0.0462(8) Uani 1 1 d . . . . .
H7A H 0.528(3) 0.453(5) 0.265(2) 0.069 Uiso 1 1 d . U . . .
H7B H 0.566(3) 0.350(5) 0.295(2) 0.069 Uiso 1 1 d . U . . .
N1 N 0.79294(16) 0.7466(3) 0.44434(15) 0.0288(7) Uani 1 1 d . . . . .
N2 N 0.88388(15) 0.5564(3) 0.39997(14) 0.0242(6) Uani 1 1 d . . . . .
N3 N 0.61064(16) 0.6188(3) 0.37322(17) 0.0352(7) Uani 1 1 d . . . . .
N4 N 0.70070(15) 0.4013(3) 0.37293(15) 0.0285(7) Uani 1 1 d . . . . .
C1 C 0.7472(2) 0.8415(4) 0.4651(2) 0.0358(9) Uani 1 1 d . . . . .
H1 H 0.728617 0.909077 0.432744 0.043 Uiso 1 1 calc R U . . .
C2 C 0.7256(2) 0.8449(4) 0.5334(2) 0.0486(11) Uani 1 1 d . . . . .
H2 H 0.692298 0.913601 0.546342 0.058 Uiso 1 1 calc R U . . .
C3 C 0.7517(3) 0.7508(4) 0.5809(2) 0.0511(12) Uani 1 1 d . . . . .
H3 H 0.738044 0.754498 0.627549 0.061 Uiso 1 1 calc R U . . .
C4 C 0.7992(2) 0.6481(4) 0.5607(2) 0.0397(10) Uani 1 1 d . . . . .
C5 C 0.81853(19) 0.6494(4) 0.49128(17) 0.0298(8) Uani 1 1 d . . . . .
C6 C 0.8297(3) 0.5419(5) 0.6064(2) 0.0499(11) Uani 1 1 d . . . . .
H6 H 0.817683 0.540092 0.653568 0.060 Uiso 1 1 calc R U . . .
C7 C 0.8747(2) 0.4456(4) 0.5842(2) 0.0457(11) Uani 1 1 d . . . . .
H7 H 0.893211 0.376206 0.615547 0.055 Uiso 1 1 calc R U . . .
C8 C 0.8955(2) 0.4454(4) 0.51344(19) 0.0335(9) Uani 1 1 d . . . . .
C9 C 0.86702(19) 0.5474(3) 0.46760(17) 0.0264(8) Uani 1 1 d . . . . .
C10 C 0.9432(2) 0.3490(4) 0.48743(19) 0.0366(9) Uani 1 1 d . . . . .
H10 H 0.963564 0.277733 0.516679 0.044 Uiso 1 1 calc R U . . .
C11 C 0.9601(2) 0.3581(4) 0.41993(19) 0.0335(9) Uani 1 1 d . . . . .
H11 H 0.992589 0.293233 0.401877 0.040 Uiso 1 1 calc R U . . .
C12 C 0.92975(18) 0.4629(3) 0.37725(19) 0.0289(8) Uani 1 1 d . . . . .
H12 H 0.942214 0.467736 0.330262 0.035 Uiso 1 1 calc R U . . .
C13 C 0.5668(2) 0.7278(4) 0.3730(2) 0.0472(11) Uani 1 1 d . . . . .
H13 H 0.558742 0.779547 0.331217 0.057 Uiso 1 1 calc R U . . .
C14 C 0.5322(2) 0.7692(5) 0.4317(3) 0.0596(13) Uani 1 1 d . . . . .
H14 H 0.501041 0.847380 0.429611 0.072 Uiso 1 1 calc R U . . .
C15 C 0.5436(3) 0.6965(5) 0.4916(3) 0.0630(14) Uani 1 1 d . . . . .
H15 H 0.520137 0.723580 0.531790 0.076 Uiso 1 1 calc R U . . .
C16 C 0.5898(2) 0.5817(4) 0.4946(2) 0.0469(11) Uani 1 1 d . . . . .
C17 C 0.6225(2) 0.5470(4) 0.4337(2) 0.0343(9) Uani 1 1 d . . . . .
C18 C 0.6059(3) 0.5010(5) 0.5560(2) 0.0589(13) Uani 1 1 d . . . . .
H18 H 0.583722 0.524065 0.597452 0.071 Uiso 1 1 calc R U . . .
C19 C 0.6516(3) 0.3937(5) 0.5563(2) 0.0524(11) Uani 1 1 d . . . . .
H19 H 0.660832 0.341395 0.597782 0.063 Uiso 1 1 calc R U . . .
C20 C 0.6868(2) 0.3561(4) 0.4952(2) 0.0369(9) Uani 1 1 d . . . . .
C21 C 0.67094(19) 0.4316(4) 0.43331(19) 0.0313(8) Uani 1 1 d . . . . .
C22 C 0.7376(2) 0.2490(4) 0.4928(2) 0.0420(10) Uani 1 1 d . . . . .
H22 H 0.750331 0.195529 0.533374 0.050 Uiso 1 1 calc R U . . .
C23 C 0.7687(2) 0.2212(4) 0.4327(2) 0.0365(9) Uani 1 1 d . . . . .
H23 H 0.804135 0.149608 0.431199 0.044 Uiso 1 1 calc R U . . .
C24 C 0.74840(19) 0.2988(3) 0.37284(19) 0.0318(8) Uani 1 1 d . . . . .
H24 H 0.769613 0.277051 0.330658 0.038 Uiso 1 1 calc R U . . .
N100 N 0.93245(16) 1.1306(3) 0.26978(15) 0.0301(7) Uani 1 1 d . . . . .
O101 O 0.96906(14) 1.0232(2) 0.27537(13) 0.0358(6) Uani 1 1 d . . . . .
O102 O 0.86669(14) 1.1365(3) 0.28531(15) 0.0457(7) Uani 1 1 d . . . . .
O103 O 0.96221(13) 1.2366(2) 0.24727(13) 0.0341(6) Uani 1 1 d . . . . .
N200 N 0.90464(16) 0.9947(3) 0.53622(16) 0.0331(7) Uani 1 1 d . . . . .
O201 O 0.91237(15) 1.0152(3) 0.47184(13) 0.0426(7) Uani 1 1 d . . . . .
O202 O 0.91947(15) 0.8849(3) 0.56360(15) 0.0506(8) Uani 1 1 d . . . . .
O203 O 0.88083(16) 1.0915(3) 0.57023(13) 0.0454(7) Uani 1 1 d . . . . .
N300 N 0.63454(18) 1.0425(3) 0.23131(16) 0.0381(8) Uani 1 1 d . . . . .
O301 O 0.65476(16) 0.9200(3) 0.24093(15) 0.0493(8) Uani 1 1 d . . . . .
O302 O 0.56793(15) 1.0717(3) 0.21831(15) 0.0532(8) Uani 1 1 d . . . . .
O303 O 0.68510(15) 1.1303(3) 0.23368(15) 0.0462(7) Uani 1 1 d . . . . .
N400 N 0.4487(2) 0.6200(4) 0.1230(2) 0.0563(10) Uani 1 1 d . . . . .
O401 O 0.4586(2) 0.7432(4) 0.13267(18) 0.0758(11) Uani 1 1 d . . . . .
O402 O 0.3893(2) 0.5715(4) 0.1073(3) 0.1120(17) Uani 1 1 d . . . . .
O403 O 0.50697(18) 0.5494(3) 0.1353(2) 0.0812(12) Uani 1 1 d . . . . .
O100 O 0.85186(15) 1.0627(3) 0.70093(14) 0.0347(6) Uani 1 1 d . . . . .
H10A H 0.864(2) 1.055(4) 0.660(2) 0.052 Uiso 1 1 d . U . . .
H10B H 0.882(2) 1.124(4) 0.720(2) 0.052 Uiso 1 1 d . U . . .
 
loop_
 _atom_site_aniso_label
 _atom_site_aniso_U_11
 _atom_site_aniso_U_22
 _atom_site_aniso_U_33
 _atom_site_aniso_U_23
 _atom_site_aniso_U_13
 _atom_site_aniso_U_12
Fe1 0.0272(3) 0.0173(3) 0.0233(3) 0.0004(2) 0.00227(19) -0.0011(2)
Fe2 0.0314(3) 0.0216(3) 0.0339(3) 0.0029(2) -0.0036(2) -0.0036(2)
O1 0.0300(12) 0.0212(13) 0.0308(13) 0.0011(10) 0.0012(10) -0.0036(10)
O2 0.0350(14) 0.0224(14) 0.0260(14) -0.0006(10) 0.0054(11) -0.0055(11)
O3 0.0334(15) 0.0208(14) 0.0450(16) 0.0060(12) -0.0018(12) -0.0003(12)
O4 0.0331(13) 0.0257(14) 0.0290(14) -0.0042(11) 0.0073(11) -0.0025(12)
O5 0.0451(16) 0.0266(15) 0.0405(16) -0.0045(13) 0.0002(13) -0.0075(14)
O6 0.0550(19) 0.0314(16) 0.059(2) 0.0092(15) -0.0252(14) -0.0074(15)
O7 0.0384(15) 0.0276(17) 0.070(2) 0.0088(14) -0.0105(15) -0.0066(13)
N1 0.0332(16) 0.0242(17) 0.0296(16) -0.0036(12) 0.0056(13) -0.0043(13)
N2 0.0288(15) 0.0193(15) 0.0240(15) 0.0003(12) -0.0006(12) -0.0023(12)
N3 0.0288(16) 0.0261(18) 0.052(2) 0.0024(15) 0.0089(14) -0.0013(14)
N4 0.0269(15) 0.0203(16) 0.0378(18) 0.0014(13) 0.0004(13) -0.0053(13)
C1 0.037(2) 0.027(2) 0.045(2) -0.0036(17) 0.0130(17) -0.0049(17)
C2 0.052(3) 0.042(3) 0.056(3) -0.012(2) 0.029(2) -0.003(2)
C3 0.070(3) 0.045(3) 0.042(3) -0.007(2) 0.027(2) -0.012(2)
C4 0.048(2) 0.038(2) 0.034(2) -0.0041(18) 0.0103(18) -0.016(2)
C5 0.037(2) 0.026(2) 0.0265(19) -0.0006(15) 0.0042(15) -0.0107(16)
C6 0.072(3) 0.053(3) 0.025(2) 0.005(2) 0.005(2) -0.023(3)
C7 0.057(3) 0.047(3) 0.032(2) 0.0135(19) -0.0015(19) -0.021(2)
C8 0.039(2) 0.029(2) 0.030(2) 0.0083(16) -0.0082(16) -0.0114(18)
C9 0.0325(19) 0.0221(19) 0.0235(18) 0.0009(14) -0.0036(14) -0.0079(15)
C10 0.041(2) 0.027(2) 0.039(2) 0.0130(17) -0.0157(17) -0.0087(18)
C11 0.033(2) 0.0208(19) 0.044(2) 0.0045(16) -0.0073(17) 0.0003(16)
C12 0.0301(18) 0.0239(19) 0.032(2) -0.0026(16) -0.0007(15) -0.0032(16)
C13 0.046(2) 0.027(2) 0.070(3) 0.008(2) 0.015(2) 0.001(2)
C14 0.051(3) 0.040(3) 0.093(4) 0.008(3) 0.036(3) 0.011(2)
C15 0.067(3) 0.043(3) 0.086(4) -0.003(3) 0.044(3) 0.002(2)
C16 0.044(2) 0.041(3) 0.059(3) -0.001(2) 0.024(2) -0.006(2)
C17 0.0318(19) 0.028(2) 0.045(2) 0.0023(17) 0.0093(17) -0.0062(17)
C18 0.069(3) 0.060(3) 0.053(3) 0.003(2) 0.032(2) -0.008(3)
C19 0.066(3) 0.049(3) 0.044(3) 0.010(2) 0.016(2) -0.007(2)
C20 0.038(2) 0.029(2) 0.043(2) 0.0072(18) 0.0014(17) -0.0088(18)
C21 0.0261(18) 0.026(2) 0.042(2) -0.0001(16) 0.0044(16) -0.0098(16)
C22 0.044(2) 0.034(2) 0.045(2) 0.0112(18) -0.0086(19) -0.0123(19)
C23 0.032(2) 0.024(2) 0.052(3) 0.0041(18) -0.0062(18) -0.0021(17)
C24 0.0303(19) 0.023(2) 0.041(2) -0.0015(16) -0.0029(16) -0.0044(16)
N100 0.0373(17) 0.0243(17) 0.0293(16) -0.0026(13) 0.0063(13) 0.0001(15)
O101 0.0425(15) 0.0224(14) 0.0446(16) 0.0066(12) 0.0159(12) 0.0065(12)
O102 0.0347(15) 0.0250(15) 0.081(2) 0.0041(14) 0.0233(14) 0.0017(12)
O103 0.0390(14) 0.0217(13) 0.0433(15) 0.0070(11) 0.0130(12) -0.0024(11)
N200 0.0345(17) 0.0280(18) 0.0362(19) -0.0003(14) -0.0003(14) -0.0052(14)
O201 0.0580(18) 0.0352(16) 0.0344(16) -0.0030(12) 0.0036(13) 0.0014(13)
O202 0.0545(18) 0.0296(16) 0.066(2) 0.0132(14) -0.0006(15) 0.0101(14)
O203 0.074(2) 0.0265(15) 0.0361(16) 0.0002(12) 0.0095(14) 0.0083(14)
N300 0.042(2) 0.0308(19) 0.0396(19) -0.0021(15) -0.0045(15) -0.0028(17)
O301 0.0598(18) 0.0174(14) 0.067(2) 0.0038(13) -0.0160(15) 0.0000(13)
O302 0.0354(16) 0.057(2) 0.066(2) -0.0021(16) -0.0060(14) 0.0056(14)
O303 0.0518(17) 0.0241(15) 0.0603(19) 0.0035(13) -0.0080(14) -0.0106(14)
N400 0.044(2) 0.046(3) 0.078(3) 0.009(2) 0.002(2) 0.007(2)
O401 0.102(3) 0.056(2) 0.074(2) 0.0012(19) 0.034(2) 0.018(2)
O402 0.044(2) 0.103(3) 0.180(5) 0.010(3) -0.042(3) -0.001(2)
O403 0.059(2) 0.059(2) 0.117(3) -0.034(2) -0.037(2) 0.0222(18)
O100 0.0491(17) 0.0293(15) 0.0264(14) 0.0009(11) 0.0069(12) -0.0038(12)
 
_geom_special_details
;
 All esds (except the esd in the dihedral angle between two l.s. planes)
 are estimated using the full covariance matrix.  The cell esds are taken
 into account individually in the estimation of esds in distances, angles
 and torsion angles; correlations between esds in cell parameters are only
 used when they are defined by crystal symmetry.  An approximate (isotropic)
 treatment of cell esds is used for estimating esds involving l.s. planes.
;
 
loop_
 _geom_bond_atom_site_label_1
 _geom_bond_atom_site_label_2
 _geom_bond_distance
 _geom_bond_site_symmetry_2
 _geom_bond_publ_flag
Fe1 O1 1.787(2) . ?
Fe1 O3 2.029(3) . ?
Fe1 O4 2.036(2) . ?
Fe1 O2 2.122(2) . ?
Fe1 N2 2.161(3) . ?
Fe1 N1 2.166(3) . ?
Fe2 O1 1.770(2) . ?
Fe2 O6 2.027(3) . ?
Fe2 O5 2.036(3) . ?
Fe2 O7 2.142(3) . ?
Fe2 N4 2.148(3) . ?
Fe2 N3 2.152(3) . ?
O2 H2A 0.84(4) . ?
O2 H2B 0.84(4) . ?
O3 H3A 0.83(4) . ?
O3 H3B 0.77(4) . ?
O4 H4A 0.83(4) . ?
O4 H4B 0.77(4) . ?
O5 H5A 0.88(4) . ?
O5 H5B 0.80(4) . ?
O6 H6A 0.83(5) . ?
O6 H6B 0.85(5) . ?
O7 H7A 0.84(5) . ?
O7 H7B 0.85(5) . ?
N1 C1 1.328(4) . ?
N1 C5 1.365(4) . ?
N2 C12 1.334(4) . ?
N2 C9 1.363(4) . ?
N3 C13 1.329(5) . ?
N3 C17 1.359(5) . ?
N4 C24 1.322(4) . ?
N4 C21 1.353(4) . ?
C1 C2 1.400(5) . ?
C1 H1 0.9500 . ?
C2 C3 1.353(6) . ?
C2 H2 0.9500 . ?
C3 C4 1.398(6) . ?
C3 H3 0.9500 . ?
C4 C5 1.408(5) . ?
C4 C6 1.440(6) . ?
C5 C9 1.429(5) . ?
C6 C7 1.339(6) . ?
C6 H6 0.9500 . ?
C7 C8 1.440(5) . ?
C7 H7 0.9500 . ?
C8 C10 1.399(5) . ?
C8 C9 1.400(5) . ?
C10 C11 1.361(5) . ?
C10 H10 0.9500 . ?
C11 C12 1.396(5) . ?
C11 H11 0.9500 . ?
C12 H12 0.9500 . ?
C13 C14 1.396(6) . ?
C13 H13 0.9500 . ?
C14 C15 1.354(6) . ?
C14 H14 0.9500 . ?
C15 C16 1.399(6) . ?
C15 H15 0.9500 . ?
C16 C17 1.397(5) . ?
C16 C18 1.428(6) . ?
C17 C21 1.430(5) . ?
C18 C19 1.335(6) . ?
C18 H18 0.9500 . ?
C19 C20 1.430(6) . ?
C19 H19 0.9500 . ?
C20 C22 1.396(5) . ?
C20 C21 1.408(5) . ?
C22 C23 1.355(5) . ?
C22 H22 0.9500 . ?
C23 C24 1.399(5) . ?
C23 H23 0.9500 . ?
C24 H24 0.9500 . ?
N100 O102 1.241(3) . ?
N100 O101 1.244(3) . ?
N100 O103 1.266(3) . ?
N200 O202 1.221(4) . ?
N200 O203 1.252(4) . ?
N200 O201 1.272(4) . ?
N300 O302 1.228(4) . ?
N300 O303 1.249(4) . ?
N300 O301 1.269(4) . ?
N400 O402 1.179(5) . ?
N400 O401 1.237(5) . ?
N400 O403 1.257(4) . ?
O100 H10A 0.83(4) . ?
O100 H10B 0.87(4) . ?
 
loop_
 _geom_angle_atom_site_label_1
 _geom_angle_atom_site_label_2
 _geom_angle_atom_site_label_3
 _geom_angle
 _geom_angle_site_symmetry_1
 _geom_angle_site_symmetry_3
 _geom_angle_publ_flag
O1 Fe1 O3 92.58(11) . . ?
O1 Fe1 O4 91.72(10) . . ?
O3 Fe1 O4 98.10(11) . . ?
O1 Fe1 O2 173.07(10) . . ?
O3 Fe1 O2 84.03(10) . . ?
O4 Fe1 O2 82.80(10) . . ?
O1 Fe1 N2 99.65(10) . . ?
O3 Fe1 N2 163.18(11) . . ?
O4 Fe1 N2 93.06(10) . . ?
O2 Fe1 N2 84.93(10) . . ?
O1 Fe1 N1 97.11(10) . . ?
O3 Fe1 N1 90.88(11) . . ?
O4 Fe1 N1 167.12(11) . . ?
O2 Fe1 N1 89.01(10) . . ?
N2 Fe1 N1 76.26(11) . . ?
O1 Fe2 O6 95.49(11) . . ?
O1 Fe2 O5 96.60(11) . . ?
O6 Fe2 O5 94.87(13) . . ?
O1 Fe2 O7 176.84(12) . . ?
O6 Fe2 O7 82.97(12) . . ?
O5 Fe2 O7 80.81(12) . . ?
O1 Fe2 N4 94.54(10) . . ?
O6 Fe2 N4 167.21(12) . . ?
O5 Fe2 N4 91.84(11) . . ?
O7 Fe2 N4 87.38(11) . . ?
O1 Fe2 N3 97.37(11) . . ?
O6 Fe2 N3 93.69(13) . . ?
O5 Fe2 N3 162.82(12) . . ?
O7 Fe2 N3 85.50(12) . . ?
N4 Fe2 N3 77.14(11) . . ?
Fe2 O1 Fe1 162.69(14) . . ?
Fe1 O2 H2A 115(3) . . ?
Fe1 O2 H2B 115(3) . . ?
H2A O2 H2B 104(4) . . ?
Fe1 O3 H3A 120(3) . . ?
Fe1 O3 H3B 126(3) . . ?
H3A O3 H3B 107(4) . . ?
Fe1 O4 H4A 127(3) . . ?
Fe1 O4 H4B 116(3) . . ?
H4A O4 H4B 106(4) . . ?
Fe2 O5 H5A 119(3) . . ?
Fe2 O5 H5B 121(3) . . ?
H5A O5 H5B 105(4) . . ?
Fe2 O6 H6A 130(4) . . ?
Fe2 O6 H6B 121(3) . . ?
H6A O6 H6B 107(5) . . ?
Fe2 O7 H7A 118(3) . . ?
Fe2 O7 H7B 115(3) . . ?
H7A O7 H7B 104(4) . . ?
C1 N1 C5 118.3(3) . . ?
C1 N1 Fe1 127.2(3) . . ?
C5 N1 Fe1 114.5(2) . . ?
C12 N2 C9 117.6(3) . . ?
C12 N2 Fe1 127.4(2) . . ?
C9 N2 Fe1 115.0(2) . . ?
C13 N3 C17 117.9(3) . . ?
C13 N3 Fe2 128.1(3) . . ?
C17 N3 Fe2 114.0(2) . . ?
C24 N4 C21 118.4(3) . . ?
C24 N4 Fe2 127.6(2) . . ?
C21 N4 Fe2 114.0(2) . . ?
N1 C1 C2 122.0(4) . . ?
N1 C1 H1 119.0 . . ?
C2 C1 H1 119.0 . . ?
C3 C2 C1 120.4(4) . . ?
C3 C2 H2 119.8 . . ?
C1 C2 H2 119.8 . . ?
C2 C3 C4 119.3(4) . . ?
C2 C3 H3 120.4 . . ?
C4 C3 H3 120.4 . . ?
C3 C4 C5 117.8(4) . . ?
C3 C4 C6 124.2(4) . . ?
C5 C4 C6 118.0(4) . . ?
N1 C5 C4 122.3(3) . . ?
N1 C5 C9 117.4(3) . . ?
C4 C5 C9 120.4(3) . . ?
C7 C6 C4 121.7(4) . . ?
C7 C6 H6 119.1 . . ?
C4 C6 H6 119.1 . . ?
C6 C7 C8 121.1(4) . . ?
C6 C7 H7 119.4 . . ?
C8 C7 H7 119.4 . . ?
C10 C8 C9 117.5(3) . . ?
C10 C8 C7 123.8(3) . . ?
C9 C8 C7 118.7(4) . . ?
N2 C9 C8 123.1(3) . . ?
N2 C9 C5 116.9(3) . . ?
C8 C9 C5 120.1(3) . . ?
C11 C10 C8 119.5(3) . . ?
C11 C10 H10 120.3 . . ?
C8 C10 H10 120.3 . . ?
C10 C11 C12 119.9(4) . . ?
C10 C11 H11 120.1 . . ?
C12 C11 H11 120.1 . . ?
N2 C12 C11 122.5(3) . . ?
N2 C12 H12 118.8 . . ?
C11 C12 H12 118.8 . . ?
N3 C13 C14 122.6(4) . . ?
N3 C13 H13 118.7 . . ?
C14 C13 H13 118.7 . . ?
C15 C14 C13 119.2(4) . . ?
C15 C14 H14 120.4 . . ?
C13 C14 H14 120.4 . . ?
C14 C15 C16 120.3(4) . . ?
C14 C15 H15 119.9 . . ?
C16 C15 H15 119.9 . . ?
C17 C16 C15 117.1(4) . . ?
C17 C16 C18 119.0(4) . . ?
C15 C16 C18 123.9(4) . . ?
N3 C17 C16 122.9(4) . . ?
N3 C17 C21 117.1(3) . . ?
C16 C17 C21 120.0(4) . . ?
C19 C18 C16 121.4(4) . . ?
C19 C18 H18 119.3 . . ?
C16 C18 H18 119.3 . . ?
C18 C19 C20 121.1(4) . . ?
C18 C19 H19 119.4 . . ?
C20 C19 H19 119.4 . . ?
C22 C20 C21 116.9(4) . . ?
C22 C20 C19 124.1(4) . . ?
C21 C20 C19 119.0(4) . . ?
N4 C21 C20 122.8(3) . . ?
N4 C21 C17 117.8(3) . . ?
C20 C21 C17 119.3(3) . . ?
C23 C22 C20 120.1(4) . . ?
C23 C22 H22 120.0 . . ?
C20 C22 H22 120.0 . . ?
C22 C23 C24 119.5(4) . . ?
C22 C23 H23 120.3 . . ?
C24 C23 H23 120.3 . . ?
N4 C24 C23 122.3(4) . . ?
N4 C24 H24 118.8 . . ?
C23 C24 H24 118.8 . . ?
O102 N100 O101 121.5(3) . . ?
O102 N100 O103 118.8(3) . . ?
O101 N100 O103 119.8(3) . . ?
O202 N200 O203 121.4(3) . . ?
O202 N200 O201 121.3(3) . . ?
O203 N200 O201 117.3(3) . . ?
O302 N300 O303 122.1(3) . . ?
O302 N300 O301 120.7(3) . . ?
O303 N300 O301 117.2(3) . . ?
O402 N400 O401 123.3(4) . . ?
O402 N400 O403 122.4(4) . . ?
O401 N400 O403 114.3(4) . . ?
H10A O100 H10B 105(4) . . ?
 
_refine_diff_density_max    0.869
_refine_diff_density_min   -0.637
_refine_diff_density_rms    0.084

_shelx_res_file
;
TITL m39_auto_a.res in P2(1)/c
    f.res
    created by SHELXL-2018/3 at 19:12:58 on 09-Jan-2024
CELL 0.71073 17.8863 9.852 19.1918 90 95.345 90
ZERR 4 0.0006 0.0004 0.0007 0 0.003 0
LATT 1
SYMM -X,0.5+Y,0.5-Z
SFAC C H N O Fe
unit 96 120 32 80 8
ACTA
BOND $H
BOND
L.S. 4
PLAN  20
TEMP -123
omit 12 1 10
fmap 2
WGHT    0.044600    3.577300
FVAR       0.30561
mole 1
FE1   5    0.831129    0.723393    0.341166    11.00000    0.02721    0.01728 =
         0.02325    0.00045    0.00227   -0.00115
FE2   5    0.667633    0.537922    0.288416    11.00000    0.03145    0.02156 =
         0.03395    0.00287   -0.00363   -0.00356
O1    4    0.749544    0.639001    0.301529    11.00000    0.03004    0.02117 =
         0.03084    0.00106    0.00119   -0.00355
O2    4    0.929844    0.832625    0.375970    11.00000    0.03504    0.02242 =
         0.02597   -0.00059    0.00539   -0.00548
H2A   2    0.926560    0.880785    0.411938    11.00000   -1.50000
H2B   2    0.945511    0.886735    0.346604    11.00000   -1.50000
O3    4    0.790190    0.909305    0.312575    11.00000    0.03336    0.02077 =
         0.04504    0.00604   -0.00179   -0.00031
H3A   2    0.750985    0.915199    0.286290    11.00000   -1.50000
H3B   2    0.813721    0.972798    0.306485    11.00000   -1.50000
O4    4    0.888598    0.686605    0.256380    11.00000    0.03307    0.02573 =
         0.02904   -0.00424    0.00727   -0.00251
H4A   2    0.933691    0.700825    0.252963    11.00000   -1.50000
H4B   2    0.879565    0.619054    0.237034    11.00000   -1.50000
O5    4    0.706554    0.409518    0.216939    11.00000    0.04512    0.02661 =
         0.04045   -0.00451    0.00017   -0.00752
H5A   2    0.754628    0.410723    0.210547    11.00000   -1.50000
H5B   2    0.695081    0.330623    0.215499    11.00000   -1.50000
O6    4    0.613369    0.661832    0.216106    11.00000    0.05496    0.03137 =
         0.05880    0.00915   -0.02521   -0.00739
H6A   2    0.575749    0.648011    0.188742    11.00000   -1.50000
H6B   2    0.620852    0.746939    0.217118    11.00000   -1.50000
O7    4    0.569695    0.414467    0.266625    11.00000    0.03842    0.02763 =
         0.06958    0.00876   -0.01050   -0.00657
H7A   2    0.527609    0.452707    0.264602    11.00000   -1.50000
H7B   2    0.565550    0.349500    0.295134    11.00000   -1.50000

N1    3    0.792943    0.746606    0.444341    11.00000    0.03317    0.02421 =
         0.02964   -0.00358    0.00562   -0.00431
N2    3    0.883878    0.556420    0.399967    11.00000    0.02882    0.01932 =
         0.02399    0.00030   -0.00062   -0.00234
N3    3    0.610639    0.618815    0.373224    11.00000    0.02880    0.02607 =
         0.05179    0.00243    0.00892   -0.00129
N4    3    0.700701    0.401296    0.372930    11.00000    0.02690    0.02025 =
         0.03776    0.00135    0.00038   -0.00529
C1    1    0.747214    0.841456    0.465139    11.00000    0.03675    0.02684 =
         0.04539   -0.00356    0.01301   -0.00493
AFIX  43
H1    2    0.728617    0.909077    0.432744    11.00000   -1.20000
AFIX   0
C2    1    0.725565    0.844853    0.533359    11.00000    0.05248    0.04192 =
         0.05583   -0.01162    0.02886   -0.00309
AFIX  43
H2    2    0.692298    0.913601    0.546342    11.00000   -1.20000
AFIX   0
C3    1    0.751738    0.750794    0.580934    11.00000    0.06982    0.04537 =
         0.04201   -0.00684    0.02675   -0.01238
AFIX  43
H3    2    0.738044    0.754498    0.627549    11.00000   -1.20000
AFIX   0
C4    1    0.799152    0.648128    0.560701    11.00000    0.04836    0.03813 =
         0.03380   -0.00413    0.01031   -0.01594
C5    1    0.818526    0.649363    0.491282    11.00000    0.03711    0.02590 =
         0.02647   -0.00065    0.00416   -0.01073
C6    1    0.829732    0.541895    0.606402    11.00000    0.07193    0.05312 =
         0.02480    0.00536    0.00539   -0.02278
AFIX  43
H6    2    0.817683    0.540092    0.653568    11.00000   -1.20000
AFIX   0
C7    1    0.874710    0.445579    0.584152    11.00000    0.05665    0.04705 =
         0.03224    0.01353   -0.00152   -0.02061
AFIX  43
H7    2    0.893211    0.376206    0.615547    11.00000   -1.20000
AFIX   0
C8    1    0.895501    0.445407    0.513439    11.00000    0.03893    0.02916 =
         0.03036    0.00828   -0.00821   -0.01144
C9    1    0.867017    0.547417    0.467601    11.00000    0.03250    0.02215 =
         0.02348    0.00091   -0.00360   -0.00786
C10   1    0.943186    0.348982    0.487433    11.00000    0.04060    0.02653 =
         0.03895    0.01303   -0.01574   -0.00874
AFIX  43
H10   2    0.963564    0.277733    0.516679    11.00000   -1.20000
AFIX   0
C11   1    0.960138    0.358074    0.419931    11.00000    0.03349    0.02077 =
         0.04413    0.00453   -0.00732    0.00030
AFIX  43
H11   2    0.992589    0.293233    0.401877    11.00000   -1.20000
AFIX   0
C12   1    0.929752    0.462872    0.377246    11.00000    0.03015    0.02388 =
         0.03201   -0.00260   -0.00072   -0.00322
AFIX  43
H12   2    0.942214    0.467736    0.330262    11.00000   -1.20000
AFIX   0
C13   1    0.566832    0.727759    0.372994    11.00000    0.04640    0.02696 =
         0.07002    0.00847    0.01485    0.00070
AFIX  43
H13   2    0.558742    0.779547    0.331217    11.00000   -1.20000
AFIX   0
C14   1    0.532223    0.769152    0.431688    11.00000    0.05065    0.04015 =
         0.09347    0.00842    0.03575    0.01132
AFIX  43
H14   2    0.501041    0.847380    0.429611    11.00000   -1.20000
AFIX   0
C15   1    0.543620    0.696494    0.491613    11.00000    0.06731    0.04321 =
         0.08551   -0.00302    0.04381    0.00168
AFIX  43
H15   2    0.520137    0.723580    0.531790    11.00000   -1.20000
AFIX   0
C16   1    0.589824    0.581725    0.494607    11.00000    0.04411    0.04086 =
         0.05946   -0.00052    0.02412   -0.00568
C17   1    0.622514    0.547012    0.433732    11.00000    0.03184    0.02754 =
         0.04452    0.00230    0.00932   -0.00618
C18   1    0.605945    0.500961    0.555972    11.00000    0.06864    0.05987 =
         0.05306    0.00294    0.03187   -0.00834
AFIX  43
H18   2    0.583722    0.524065    0.597452    11.00000   -1.20000
AFIX   0
C19   1    0.651591    0.393662    0.556276    11.00000    0.06622    0.04941 =
         0.04379    0.00950    0.01630   -0.00728
AFIX  43
H19   2    0.660832    0.341395    0.597782    11.00000   -1.20000
AFIX   0
C20   1    0.686801    0.356072    0.495217    11.00000    0.03822    0.02918 =
         0.04286    0.00717    0.00145   -0.00881
C21   1    0.670944    0.431572    0.433311    11.00000    0.02615    0.02583 =
         0.04199   -0.00012    0.00437   -0.00982
C22   1    0.737587    0.249005    0.492811    11.00000    0.04442    0.03405 =
         0.04513    0.01123   -0.00863   -0.01226
AFIX  43
H22   2    0.750331    0.195529    0.533374    11.00000   -1.20000
AFIX   0
C23   1    0.768748    0.221214    0.432697    11.00000    0.03228    0.02353 =
         0.05172    0.00410   -0.00621   -0.00208
AFIX  43
H23   2    0.804135    0.149608    0.431199    11.00000   -1.20000
AFIX   0
C24   1    0.748401    0.298799    0.372842    11.00000    0.03029    0.02302 =
         0.04095   -0.00154   -0.00295   -0.00439
AFIX  43
H24   2    0.769613    0.277051    0.330658    11.00000   -1.20000
AFIX   0

mole 2
N100  3    0.932447    1.130630    0.269776    11.00000    0.03730    0.02427 =
         0.02929   -0.00263    0.00628    0.00013
O101  4    0.969061    1.023199    0.275370    11.00000    0.04248    0.02245 =
         0.04465    0.00660    0.01593    0.00647
O102  4    0.866689    1.136514    0.285305    11.00000    0.03473    0.02498 =
         0.08073    0.00411    0.02326    0.00174
O103  4    0.962215    1.236622    0.247271    11.00000    0.03897    0.02166 =
         0.04326    0.00699    0.01302   -0.00244
mole 3
N200  3    0.904638    0.994718    0.536224    11.00000    0.03446    0.02804 =
         0.03618   -0.00029   -0.00029   -0.00518
O201  4    0.912370    1.015227    0.471835    11.00000    0.05801    0.03520 =
         0.03438   -0.00300    0.00361    0.00135
O202  4    0.919472    0.884934    0.563599    11.00000    0.05452    0.02960 =
         0.06637    0.01316   -0.00057    0.01008
O203  4    0.880829    1.091504    0.570231    11.00000    0.07440    0.02646 =
         0.03610    0.00019    0.00947    0.00830
mole 4
N300  3    0.634537    1.042526    0.231312    11.00000    0.04234    0.03076 =
         0.03960   -0.00210   -0.00449   -0.00280
O301  4    0.654756    0.920007    0.240934    11.00000    0.05983    0.01741 =
         0.06661    0.00379   -0.01598    0.00002
O302  4    0.567927    1.071682    0.218306    11.00000    0.03541    0.05665 =
         0.06563   -0.00208   -0.00600    0.00559
O303  4    0.685098    1.130295    0.233676    11.00000    0.05181    0.02408 =
         0.06028    0.00349   -0.00801   -0.01062
mole 5
N400  3    0.448722    0.620037    0.123048    11.00000    0.04433    0.04584 =
         0.07808    0.00861    0.00182    0.00651
O401  4    0.458555    0.743171    0.132673    11.00000    0.10227    0.05551 =
         0.07438    0.00120    0.03374    0.01844
O402  4    0.389333    0.571479    0.107277    11.00000    0.04383    0.10278 =
         0.17960    0.00959   -0.04157   -0.00073
O403  4    0.506970    0.549446    0.135319    11.00000    0.05922    0.05920 =
         0.11681   -0.03355   -0.03710    0.02223
mole 6
O100  4    0.851862    1.062687    0.700932    11.00000    0.04907    0.02926 =
         0.02644    0.00094    0.00686   -0.00385
H10A  2    0.863587    1.055280    0.660108    11.00000   -1.50000
H10B  2    0.882208    1.124440    0.720160    11.00000   -1.50000
HKLF 4




REM  m39_auto_a.res in P2(1)/c
REM wR2 = 0.1203, GooF = S = 1.043, Restrained GooF = 1.043 for all data
REM R1 = 0.0493 for 4830 Fo > 4sig(Fo) and 0.0865 for all 7181 data
REM 529 parameters refined using 0 restraints

END

WGHT      0.0449      3.5229

REM Highest difference peak  0.869,  deepest hole -0.637,  1-sigma level  0.084
Q1    1   0.4180  0.5721  0.0485  11.00000  0.05    0.87
Q2    1   0.6955  0.4943  0.2589  11.00000  0.05    0.64
Q3    1   0.6198  1.0634  0.5819  11.00000  0.05    0.63
Q4    1   0.3883  0.5504  0.1197  11.00000  0.05    0.48
Q5    1   0.4761  0.5624  0.0698  11.00000  0.05    0.48
Q6    1   0.9473  0.8387  0.5073  11.00000  0.05    0.43
Q7    1   0.6194  0.5826  0.3335  11.00000  0.05    0.40
Q8    1   0.9473  0.9437  0.6018  11.00000  0.05    0.40
Q9    1   0.5482  1.0112  0.2524  11.00000  0.05    0.40
Q10   1   0.6715  0.9520  0.5214  11.00000  0.05    0.39
Q11   1   0.6690  0.9019  0.2839  11.00000  0.05    0.37
Q12   1   0.7404  0.5638  0.2986  11.00000  0.05    0.37
Q13   1   0.5652  0.9629  0.2314  11.00000  0.05    0.36
Q14   1   0.4106  0.6780  0.1469  11.00000  0.05    0.35
Q15   1   0.5941  0.3733  0.2313  11.00000  0.05    0.34
Q16   1   0.6621  1.0058  0.2885  11.00000  0.05    0.32
Q17   1   0.7402  0.6661  0.2741  11.00000  0.05    0.32
Q18   1   0.8453  0.6037  0.3695  11.00000  0.05    0.32
Q19   1   0.6826  0.4446  0.3360  11.00000  0.05    0.32
Q20   1   0.6268  0.5758  0.1926  11.00000  0.05    0.31
;
_shelx_res_checksum   27396

_shelx_hkl_file
;
   0   0  -2  560.12   16.66
   0   0  -2  532.93   17.94
   0   0  -3    0.66    0.76
   0   0   3   -0.44    1.56
   0   0  -3   -0.42    1.67
   0   0   3   -0.27    1.38
   0   0  -4 3167.17  118.88
   0   0  -4 3358.29  121.31
   0   0   4 3442.60  121.61
   0   0   4 3433.59  119.49
   0   0  -5    0.37    2.00
   0   0   5    5.16    3.98
   0   0  -5    0.69    4.10
   0   0   5   -0.44    3.51
   0   0  -6 1963.41   70.47
   0   0   6 1816.62   75.96
   0   0  -6 1958.95   73.81
   0   0   6 1860.77   73.99
   0   0   6 1860.75   70.89
   0   0  -7   -0.51    1.74
   0   0   7    5.43    5.50
   0   0  -7   -1.90    4.61
   0   0   7   -1.04    3.44
   0   0   7    1.19    3.18
   0   0  -8  441.67   19.94
   0   0   8  428.28   26.17
   0   0  -8  437.35   23.23
   0   0   8  438.63   24.07
   0   0   8  428.08   20.52
   0   0  -9   -0.66    2.46
   0   0   9    6.97    8.49
   0   0  -9    1.19    4.55
   0   0   9    1.35    4.71
   0   0   9   -5.14    4.13
   0   0 -10   13.93    3.60
   0   0 -10    9.15    5.22
   0   0  10   10.34    4.90
   0   0 -11   -0.81    3.01
   0   0  11   -2.55    4.59
   0   0  11   12.71    9.04
   0   0 -11    4.24    5.40
   0   0  12  295.95   25.19
   0   0  12  314.04   17.96
   0   0 -12  342.01   18.04
   0   0  12  297.65   25.65
   0   0 -12  308.73   21.29
   0   0  13    2.45   10.44
   0   0  13    2.81    4.26
   0   0  13   14.78   12.59
   0   0 -13   -1.62    6.06
   0   0 -13   -1.89    3.53
   0   0  14  832.51   48.58
   0   0  14  798.55   48.34
   0   0 -14  783.89   41.96
   0   0 -14  863.72   39.91
   0   0 -14  866.88   37.91
   0   0  15   10.95   14.47
   0   0  15    5.60   12.15
   0   0 -15    9.01    7.95
   0   0 -15    6.89    6.44
   0   0 -15    1.08    4.12
   0   0 -16   17.10    5.37
   0   0  16   23.67   15.48
   0   0  16   31.62   15.85
   0   0  17  -15.55   15.53
   0   0  17   -3.00   12.40
   0   0  18  143.20   22.15
   0   0  18  122.03   19.74
   0   0  19    3.37   13.40
   0   0  19   12.97   14.95
   0   0  20   -3.49   16.11
   0   0  20  -23.45   18.66
   0   0  21   28.84   16.39
   0   0  21    3.45   13.71
   0   0  22  122.30   23.26
   0   0  22  159.06   24.35
   0   0  23   26.56   17.49
   0   0  23  -18.09   16.68
   0   0  24   19.31   16.22
   0  -1   1 1260.89   48.30
   0  -1  -1 1350.39   47.83
   0   1   1 1327.97   47.84
   0   1   2  417.84   18.21
   0  -1  -2  412.39   18.03
   0   1   2  467.77   17.98
   0  -1  -2  474.24   18.05
   0  -1   2  453.67   19.64
   0   1   2  483.52   17.85
   0   1   3    5.87    3.26
   0   1   3    6.13    1.86
   0   1   3    9.49    1.64
   0  -1  -3    5.55    2.03
   0  -1  -3    4.89    1.78
   0   1   3   10.20    2.18
   0  -1   3    7.91    3.95
   0  -1  -3    5.21    1.74
   0   1   4 1281.37   47.18
   0  -1  -4 1260.54   47.85
   0  -1  -4 1261.97   47.13
   0   1   4 1262.18   49.28
   0  -1   4 1230.13   50.98
   0  -1  -4 1271.21   47.88
   0   1  -4 1170.47   49.21
   0   1   4 1257.23   48.34
   0  -1   5   35.05    2.74
   0   1   5   38.92    3.90
   0  -1  -5   42.81    4.88
   0  -1  -5   35.91    3.83
   0   1   5   22.14    5.64
   0  -1   5   39.98    8.54
   0   1  -5   37.94    6.26
   0  -1  -5   46.91    5.25
   0   1   5   32.24    4.96
   0  -1   6  209.57    9.52
   0   1   6  224.05   11.45
   0  -1  -6  218.83   11.39
   0  -1  -6  218.79   12.30
   0   1   6  209.82   13.18
   0  -1   6  180.92   15.01
   0   1  -6  250.62   14.61
   0   1   6  218.83   13.39
   0  -1  -6  215.48   12.68
   0  -1   7   48.63    3.91
   0   1   7   40.48    4.54
   0  -1  -7   39.20    4.52
   0  -1  -7   36.32    5.16
   0   1   7   44.99    6.42
   0  -1   7   31.73    8.47
   0   1   7   47.05    7.94
   0   1  -7   54.85    7.71
   0  -1  -7   36.88    5.55
   0   1   7   47.81    6.75
   0  -1   8  387.94   16.67
   0  -1  -8  418.25   20.19
   0  -1  -8  384.47   18.49
   0   1   8  379.54   18.60
   0   1   8  383.87   20.58
   0   1   8  366.01   23.66
   0  -1   8  392.26   24.84
   0   1   8  374.84   21.59
   0  -1  -8  368.13   20.38
   0   1  -8  406.13   22.34
   0  -1   9  767.53   30.88
   0   1  -9  767.12   32.24
   0  -1  -9  820.49   34.94
   0   1   9  788.60   33.11
   0  -1  -9  785.29   33.09
   0   1   9  746.98   34.99
   0  -1   9  788.21   41.09
   0   1   9  701.46   38.95
   0  -1  -9  780.15   35.80
   0   1  -9  752.20   36.99
   0   1   9  818.04   37.71
   0  -1  10  105.01    7.17
   0   1  10  109.79   10.33
   0   1  10   98.44    8.31
   0  -1 -10  102.27    9.62
   0   1 -10   94.41    7.75
   0  -1 -10  110.02    8.68
   0   1  10  105.01   13.94
   0  -1  10  125.00   15.33
   0   1 -10  116.21   12.14
   0  -1 -10   85.60    9.67
   0   1  10   96.33   11.10
   0  -1  11    4.26    9.97
   0   1  11    2.12    8.59
   0  -1  11    6.06    3.14
   0   1  11    3.39    5.84
   0  -1 -11   11.95    3.89
   0  -1 -11   13.20    5.01
   0   1 -11    8.38    3.26
   0   1  11   16.21   10.48
   0  -1  11   10.99   10.57
   0   1 -11    4.54    6.36
   0   1  11    7.95    6.33
   0  -1 -11    5.19    5.64
   0   1  12   20.48   11.77
   0  -1  12   29.77   11.71
   0   1 -12   12.51    3.86
   0  -1 -12    7.12    5.33
   0  -1 -12   13.88    4.22
   0   1  12   11.85    6.86
   0  -1  12    9.01    3.73
   0  -1  12   14.28   10.50
   0   1  12   26.46   10.87
   0   1  12   15.72    7.21
   0   1 -12    6.51    7.07
   0  -1 -12    2.80    5.25
   0   1  13  237.92   23.46
   0  -1  13  278.38   24.85
   0   1  13  251.68   17.97
   0  -1 -13  239.54   15.21
   0   1 -13  236.21   14.84
   0  -1 -13  254.08   17.38
   0   1  13  248.88   23.49
   0  -1  13  268.09   25.16
   0  -1 -13  205.50   17.37
   0   1 -13  214.20   18.90
   0   1  13  256.63   21.17
   0   1  14   66.94   16.80
   0  -1  14   75.09   15.90
   0   1  14   76.47   10.95
   0  -1 -14   97.41    9.46
   0  -1 -14   86.48   10.51
   0   1 -14   75.55    8.43
   0   1  14   78.76   17.95
   0  -1  14   89.85   17.74
   0   1 -14   89.56   12.91
   0  -1 -14   86.09   11.82
   0   1  15   13.58   13.40
   0  -1  15   24.57   14.91
   0   1  15   19.60    7.64
   0   1  15   18.93   13.67
   0  -1  15    8.66   14.94
   0   1 -15    1.92    8.20
   0  -1 -15   10.10    6.32
   0  -1 -15   19.99    7.73
   0   1 -15   17.63    5.08
   0  -1 -15   19.13    5.78
   0   1 -16   16.50    5.44
   0  -1  16   17.21   14.49
   0   1  16    2.85   12.78
   0   1  16   14.31   14.29
   0  -1  16   18.19   15.14
   0  -1  17   11.99   13.42
   0   1  17    5.96   12.94
   0  -1  17   -3.18   16.27
   0   1  17    3.01   13.88
   0   1  18   90.11   19.57
   0  -1  18  152.86   22.18
   0  -1  18  126.24   22.10
   0   1  18  141.86   21.86
   0  -1  19  129.33   21.76
   0   1  19   93.37   20.16
   0   1  19  107.92   21.55
   0  -1  19  134.70   22.40
   0  -1  20   66.79   18.50
   0   1  20   49.91   16.09
   0  -1  20   39.32   17.72
   0   1  20   61.01   17.42
   0   1  21  -10.27   14.12
   0  -1  21   13.74   15.15
   0   1  21  -14.00   14.69
   0  -1  21    7.37   15.72
   0   1  22   -3.52   15.26
   0  -1  22  -14.08   16.47
   0  -1  22   -3.78   14.75
   0   1  22   -7.20   15.62
   0  -1  23  -14.41   15.63
   0   1  23   -7.19   14.02
   0   1  23   -3.68   15.47
   0  -1  23  -19.34   17.06
   0   1  24   67.27   19.68
   0   2   0  926.54   33.42
   0  -2  -1 2061.99   74.83
   0  -2   1 2102.58   76.23
   0   2   1 2176.46   76.64
   0  -2  -1 2113.59   76.55
   0   2   1 2102.18   75.20
   0  -2   2  414.02   18.19
   0   2   2  378.96   16.58
   0  -2  -2  385.60   16.60
   0  -2  -2  383.67   15.86
   0   2   2  371.49   16.29
   0  -2  -3  404.41   18.00
   0   2   3  418.82   18.70
   0   2   3  401.77   18.20
   0  -2   3  438.74   21.15
   0  -2  -3  427.30   18.30
   0   2   4 1184.68   46.90
   0   2   4 1159.54   46.04
   0  -2  -4 1196.31   46.72
   0  -2  -4 1208.59   46.19
   0  -2   4 1275.04   50.39
   0  -2  -4 1146.53   46.79
   0   2   4 1228.96   46.12
   0   2   4 1253.68   49.62
   0  -2  -5  319.35   16.31
   0   2   5  324.01   15.61
   0   2   5  342.08   16.71
   0  -2  -5  324.33   15.79
   0  -2   5  313.47   19.52
   0  -2  -5  346.75   17.30
   0   2   5  310.45   15.92
   0   2   5  328.79   18.41
   0  -2  -6 1007.03   40.05
   0  -2  -6  949.45   40.67
   0   2   6 1024.44   40.04
   0   2   6  990.55   41.25
   0   2   6  939.96   42.80
   0  -2   6  997.38   45.53
   0   2   6 1046.57   41.45
   0  -2  -7   -0.67    2.40
   0   2   7   -0.68    1.99
   0  -2  -7   -1.63    3.11
   0   2   7    7.12    6.06
   0  -2   7    4.55    7.00
   0   2   7    2.77    3.45
   0  -2  -7   -0.73    2.90
   0   2  -7    2.26    4.57
   0   2   7   -1.10    5.13
   0   2   8  232.24   13.54
   0  -2  -8  251.90   14.83
   0  -2  -8  234.45   13.43
   0   2   8  231.28   17.44
   0  -2   8  209.95   18.76
   0   2  -8  229.18   16.54
   0  -2  -8  246.88   14.48
   0   2   8  239.18   15.64
   0   2   8  214.35   15.79
   0   2   9   79.63    7.42
   0  -2  -9   88.05    8.70
   0  -2  -9   63.81    6.91
   0   2   9   75.93    9.91
   0   2   9   79.65   11.63
   0  -2   9   93.12   13.46
   0   2   9   71.34    9.13
   0   2  -9  101.80   11.24
   0  -2  -9   97.76    8.81
   0   2  10 1245.30   58.78
   0  -2  10 1176.35   58.33
   0  -2  10 1248.23   45.71
   0   2  10 1253.06   51.15
   0  -2 -10 1303.27   51.18
   0  -2 -10 1280.96   52.85
   0   2  10 1178.42   54.06
   0   2  10 1230.46   57.48
   0  -2  10 1271.80   60.47
   0   2  10 1268.87   55.12
   0  -2 -10 1289.04   52.73
   0   2 -10 1165.40   55.20
   0  -2  11   25.23   10.76
   0   2  11   41.54   12.45
   0  -2 -11   59.43    7.01
   0   2  11   55.32    9.49
   0  -2 -11   44.07    7.43
   0   2  11   65.18    7.14
   0   2  11   53.87   12.30
   0  -2  11   52.10   12.60
   0   2  11   53.85    9.14
   0  -2 -11   32.91    6.95
   0   2 -11   51.42    9.61
   0  -2  12 1265.60   61.48
   0   2  12 1299.07   61.56
   0  -2 -12 1275.81   53.85
   0  -2 -12 1231.95   51.63
   0   2  12 1206.59   51.60
   0   2  12 1237.23   55.19
   0  -2  12 1214.03   62.13
   0   2  12 1218.03   60.04
   0   2 -12 1214.67   57.10
   0  -2 -12 1224.51   53.81
   0   2  12 1270.22   57.20
   0  -2  13    4.83   10.97
   0   2  13    4.77   10.34
   0  -2 -13    2.12    3.52
   0   2 -13    9.56    4.07
   0  -2 -13    9.27    5.75
   0   2  13    3.27    3.70
   0   2  13    1.50    8.35
   0   2  13   24.97   12.51
   0  -2  13    5.23   14.12
   0   2 -13   14.63    9.24
   0   2  13   14.72    8.24
   0  -2 -13    8.26    5.37
   0   2  14   15.17   13.52
   0  -2  14   51.22   14.95
   0  -2 -14   11.24    4.67
   0   2  14   17.09    9.40
   0  -2 -14    9.83    6.22
   0   2 -14   14.04    4.23
   0   2  14   26.48    6.05
   0   2  14   26.79   13.44
   0  -2  14    8.34   13.72
   0   2  14   31.88   10.55
   0   2 -14   23.16   10.11
   0  -2 -14   13.24    6.61
   0  -2  15  148.61   20.56
   0   2  15   88.10   17.71
   0   2  15  132.27   14.93
   0   2 -15   95.47    9.69
   0  -2 -15  133.93   11.66
   0   2  15  113.78   18.76
   0  -2  15  123.51   20.86
   0   2  15   81.53   14.41
   0  -2 -15  104.50   12.22
   0  -2  16   70.93   18.24
   0   2  16   53.25   16.50
   0   2  16   55.20   12.08
   0   2  16   90.29   18.11
   0  -2  16   58.79   18.35
   0  -2 -16   60.74   10.48
   0   2 -16   68.41    8.34
   0  -2  17   83.02   18.23
   0   2  17   82.07   17.74
   0   2  17   57.62   15.77
   0  -2  17   77.73   18.03
   0   2  18   -3.05   13.03
   0  -2  18    3.09   13.39
   0   2  18   -9.05   14.50
   0  -2  18  -13.50   16.84
   0   2  19   -3.16   14.59
   0  -2  19   -9.59   13.87
   0   2  19  -15.70   14.69
   0  -2  19  -17.50   18.10
   0  -2  20   36.25   17.08
   0   2  20   32.65   17.12
   0  -2  20   28.96   17.21
   0   2  20   45.59   16.88
   0  -2  21   13.55   13.73
   0   2  21   10.08   12.84
   0  -2  21    7.45   14.82
   0   2  21   16.75   14.07
   0  -2  22  -10.42   16.25
   0   2  22    6.91   12.91
   0  -2  22    7.64   14.28
   0   2  22   -6.88   13.94
   0   2  23  -10.60   15.82
   0  -2  23    3.55   14.64
   0  -2  23   11.70   16.08
   0   2  23  -21.12   16.46
   0   2  24  -10.75   17.21
   0   3   0    0.70    0.67
   0   3   1    3.73    1.34
   0  -3   1    8.43    2.38
   0   3   1    3.12    1.63
   0   3   2   29.76    3.63
   0  -3  -2   26.10    3.63
   0   3   2   29.90    3.37
   0  -3  -2   24.10    2.36
   0  -3   2   22.77    4.50
   0   3   2   25.69    3.31
   0  -3   2   22.40    3.11
   0   3   3  198.13   10.86
   0  -3  -3  182.28   10.47
   0  -3   3  184.55   10.75
   0   3   3  203.96   10.97
   0  -3   3  179.82   11.97
   0  -3  -3  175.16    9.44
   0   3   4  145.06    9.61
   0   3   4  166.33    9.73
   0  -3  -4  132.08    8.78
   0  -3   4  119.46    9.74
   0   3   4  150.26   10.54
   0   3   4  117.39   11.28
   0  -3   4  158.94   11.69
   0   3   4  112.01    8.39
   0  -3  -4  121.49    8.17
   0   3   5   86.58    7.08
   0   3   5   83.92    7.41
   0  -3  -5   79.60    6.68
   0   3   5   53.04    7.98
   0  -3   5   82.89    9.05
   0   3   5   67.92    9.13
   0  -3   5   88.65    9.96
   0   3   5   82.19    7.82
   0   3   5   78.07    6.54
   0  -3  -5   79.26    7.08
   0   3   6 1578.32   63.29
   0   3   6 1625.45   64.79
   0  -3  -6 1700.74   63.58
   0   3   6 1650.43   67.73
   0   3   6 1656.42   67.01
   0   3   6 1531.65   64.64
   0  -3   6 1682.16   68.92
   0  -3  -6 1651.59   64.40
   0   3   6 1656.92   63.50
   0  -3  -7 1975.47   74.03
   0   3   7 1963.67   73.96
   0  -3  -7 1896.19   74.78
   0   3   7 1955.10   75.59
   0   3   7 1865.73   78.03
   0   3   7 1846.57   77.91
   0  -3   7 1891.90   78.22
   0  -3   7 1861.36   79.87
   0   3   7 1857.42   76.04
   0  -3  -7 1893.59   75.50
   0   3   7 1996.16   74.91
   0  -3  -8 1339.94   53.17
   0  -3  -8 1393.52   54.60
   0   3   8 1340.55   53.13
   0   3   8 1265.12   54.45
   0   3   8 1241.23   56.74
   0   3   8 1253.20   57.60
   0  -3   8 1281.48   57.95
   0   3   8 1310.13   56.23
   0  -3   8 1235.46   59.26
   0  -3  -8 1321.91   55.31
   0   3   8 1329.48   54.62
   0   3  -8 1311.64   56.98
   0  -3  -9  232.21   15.42
   0   3   9  230.01   14.27
   0  -3  -9  225.71   14.30
   0  -3   9  184.39   17.79
   0   3   9  221.76   18.70
   0   3   9  233.34   17.87
   0  -3   9  214.19   19.54
   0   3   9  229.46   17.78
   0   3   9  218.19   15.50
   0   3  -9  218.16   17.41
   0  -3  -9  252.38   17.06
   0  -3 -10   28.88    6.15
   0   3  10   42.71    6.06
   0  -3 -10   37.64    5.99
   0   3  10   37.37    9.47
   0  -3  10   43.23   11.12
   0   3  10   49.85   11.11
   0   3  10   21.31    8.74
   0  -3  10   12.82    9.92
   0   3 -10   25.41    8.56
   0   3  10   26.96    7.22
   0  -3 -10   33.97    7.81
   0   3  11  177.51   12.98
   0  -3 -11  163.12   13.72
   0  -3 -11  220.48   14.01
   0   3  11  190.41   17.14
   0  -3  11  173.83   18.97
   0   3  11  166.50   18.52
   0  -3  11  138.95   18.69
   0   3  11  166.81   17.41
   0  -3 -11  208.77   16.76
   0   3  11  174.84   15.81
   0   3 -11  179.33   17.02
   0  -3 -12  217.78   15.01
   0  -3 -12  241.95   16.85
   0   3  12  208.29   14.68
   0  -3  12  222.67   22.02
   0   3  12  226.74   21.43
   0   3  12  231.85   19.10
   0  -3  12  199.15   22.97
   0   3  12  214.04   20.48
   0   3 -12  181.74   17.99
   0  -3 -12  202.33   17.85
   0   3  12  229.11   18.73
   0  -3 -13   64.10    9.38
   0   3  13   75.91    8.93
   0  -3 -13   72.11    8.82
   0   3  13   61.35   12.51
   0   3  13   71.58   14.70
   0  -3  13   68.38   15.11
   0   3  13   51.32   14.04
   0  -3  13   53.37   15.60
   0  -3 -13   87.83   12.71
   0   3 -13   67.28   12.93
   0   3  13   48.53   11.01
   0  -3 -14  129.84   11.74
   0  -3 -14  116.12   12.65
   0   3  14  117.64   11.34
   0   3  14  144.90   16.54
   0  -3  14  132.70   18.80
   0   3  14  120.13   18.63
   0   3  14  121.68   18.57
   0  -3  14   99.05   19.20
   0   3 -14  105.12   15.06
   0  -3 -14  122.18   15.19
   0   3  14  140.16   16.20
   0   3  15    9.16    5.01
   0   3  15   23.29   13.07
   0  -3  15    2.64   11.48
   0   3  15    3.71    9.48
   0   3  15   26.90   14.52
   0  -3  15   26.87   16.46
   0   3  15    6.28    8.49
   0  -3  16  349.94   30.14
   0   3  16  353.41   30.06
   0   3  16  374.32   26.31
   0   3  16  342.03   21.97
   0   3 -16  364.24   20.29
   0  -3  16  341.56   31.57
   0   3  16  300.37   28.59
   0   3  16  349.46   27.22
   0   3  17    7.16    8.92
   0   3  17    7.66    8.84
   0  -3  17    3.27   13.97
   0   3  17   -2.72   12.38
   0  -3  17   -5.81   11.97
   0   3  17   11.35   12.52
   0   3  18    2.85   13.33
   0  -3  18    6.80   14.28
   0  -3  18  -24.15   14.51
   0   3  18   -8.86   14.01
   0   3  19   -2.96   12.66
   0  -3  19    3.53   15.55
   0  -3  19    3.13   13.13
   0   3  19    9.19   13.50
   0  -3  20   -7.28   14.74
   0   3  20    3.06   13.92
   0  -3  20   -9.66   13.98
   0   3  20   15.83   13.51
   0  -3  21   33.67   16.27
   0   3  21   16.29   14.85
   0  -3  21   46.37   16.56
   0  -3  22    3.83   15.50
   0   3  22   -3.35   14.05
   0  -3  22    6.79   14.25
   0  -3  23   11.70   15.81
   0   3  23    6.84   15.55
   0  -3  23   27.71   15.75
   0  -4   0    1.72    0.95
   0   4   0    3.41    2.38
   0   4   0    2.12    1.04
   0   4   1  261.58   14.48
   0  -4   1  246.65   11.76
   0   4   1  296.98   12.30
   0  -4   2   23.77    2.67
   0   4   2   39.55    4.15
   0   4   2   22.95    3.95
   0  -4  -2   34.55    2.96
   0  -4  -2   29.40    2.90
   0  -4   2   19.41    3.77
   0   4   3  762.22   31.50
   0  -4  -3  765.60   32.63
   0   4   3  739.78   32.66
   0  -4  -3  753.05   29.85
   0   4   3  847.34   37.59
   0  -4   3  768.35   32.92
   0   4   3  758.49   30.38
   0  -4   3  771.90   30.48
   0   4   4  296.83   15.59
   0  -4   4  257.80   14.97
   0  -4  -4  309.63   16.23
   0   4   4  340.70   17.49
   0   4   4  308.99   16.32
   0   4   4  318.99   20.32
   0  -4   4  328.51   17.97
   0   4   4  287.11   13.68
   0  -4  -4  295.16   14.31
   0  -4   5  142.96   10.95
   0   4   5  120.63   10.51
   0   4   5  143.99   10.17
   0   4   5  143.76   10.80
   0  -4  -5  109.88    9.07
   0   4   5  115.57   12.98
   0   4  -5  125.94    8.21
   0   4   5  139.88    9.36
   0  -4   5  131.78   12.19
   0  -4  -5  148.96    9.32
   0   4   6  227.73   15.53
   0  -4   6  256.69   16.32
   0   4   6  279.68   16.16
   0   4   6  254.90   14.94
   0  -4  -6  236.61   14.25
   0   4   6  261.42   18.95
   0   4  -6  233.49   11.05
   0  -4   6  201.60   16.97
   0   4   6  245.60   14.70
   0   4   6  225.34   13.37
   0  -4  -6  230.96   13.84
   0  -4   7    1.24    5.97
   0   4   7    6.14    5.90
   0   4   7    6.72    3.70
   0  -4  -7   -0.89    2.51
   0   4   7    1.86    2.62
   0  -4  -7    1.84    2.96
   0   4   7   -1.58    7.06
   0  -4   7    1.57    6.94
   0   4   7    0.97    5.60
   0   4   7   -0.86    3.01
   0  -4   8   17.16    7.58
   0   4   8   29.55    8.15
   0   4   8   16.96    4.93
   0   4   8    8.86    3.46
   0  -4  -8    9.52    4.02
   0  -4  -8   15.96    5.00
   0   4   8    8.25    8.05
   0   4   8   18.38    6.95
   0  -4   8   15.93    8.63
   0   4   8   13.13    4.68
   0   4   9   37.69    7.06
   0   4   9   18.82    4.53
   0  -4  -9   24.25    5.04
   0   4   9   18.95    8.73
   0  -4  -9   26.52    6.21
   0   4  -9   37.87    9.15
   0   4   9   22.14    5.87
   0   4   9    5.31    7.71
   0  -4   9    9.80    9.45
   0   4   9   22.10    8.38
   0  -4   9   24.18    8.65
   0   4  10  339.84   23.61
   0  -4  10  298.32   23.00
   0   4  10  323.14   23.46
   0  -4 -10  332.60   18.99
   0   4  10  283.55   18.26
   0  -4  10  301.00   25.10
   0   4  10  331.21   22.14
   0   4 -10  329.06   22.95
   0   4  10  335.24   20.63
   0  -4 -10  299.33   20.24
   0  -4  11  769.74   41.00
   0   4  11  689.76   39.09
   0  -4 -11  698.45   33.57
   0   4  11  733.65   34.09
   0   4  11  715.65   38.99
   0  -4  11  700.41   41.67
   0   4  11  673.83   37.49
   0  -4 -11  678.70   35.84
   0   4 -11  721.35   38.90
   0   4  11  671.68   35.82
   0   4  12   41.96    7.00
   0  -4 -12   40.54    6.84
   0   4  12   32.84   11.15
   0   4  12   51.27   13.15
   0  -4  12   21.14   11.96
   0  -4  12   40.08   13.60
   0   4  12   30.99   11.45
   0   4 -12   61.11   12.44
   0   4  12   38.80    9.61
   0  -4 -12   33.69    8.86
   0  -4 -13  127.20   11.62
   0   4  13  134.72   12.13
   0   4  13  129.60   17.15
   0   4  13  111.98   16.80
   0  -4  13  122.45   18.11
   0  -4  13  152.22   21.56
   0   4  13  114.65   16.94
   0   4  13  114.61   14.01
   0   4 -13  123.05   16.53
   0  -4 -13  113.75   13.72
   0   4  14   10.82    5.68
   0   4  14    6.17   10.87
   0  -4  14    7.24   11.89
   0   4  14   11.67   12.06
   0   4  14   -4.24   12.15
   0  -4  14   11.36   14.51
   0   4  14   -1.91    8.44
   0  -4 -14    7.35    8.36
   0   4  15   60.76    9.05
   0   4  15   51.74   14.51
   0  -4  15   66.34   15.15
   0   4  15   56.78   13.17
   0   4  15   49.76   14.25
   0  -4  15   47.82   15.93
   0   4  15   69.82   12.77
   0  -4  16  268.03   26.00
   0   4  16  261.20   25.76
   0   4  16  305.17   24.61
   0   4  16  266.72   18.87
   0  -4  16  253.67   27.35
   0   4  16  247.78   21.87
   0   4  17   -2.71   11.74
   0  -4  17   16.81   13.46
   0   4  17   -8.71   11.00
   0   4  17    3.05    5.04
   0  -4  17    3.27   15.06
   0   4  17    4.67    9.27
   0   4  18   14.20    6.27
   0   4  18    2.20   10.42
   0  -4  18   10.21   14.53
   0  -4  18    2.92   12.45
   0   4  18  -14.09   13.71
   0  -4  19    7.04   15.28
   0   4  19   -8.76   12.47
   0  -4  19   -3.02   13.11
   0  -4  20   -3.63   16.24
   0   4  20   12.07   12.66
   0  -4  20   15.58   13.96
   0  -4  21   29.78   19.03
   0   4  21   24.87   13.72
   0  -4  21    9.61   13.92
   0  -4  22   57.00   18.06
   0  -4  22   45.94   17.01
   0   4  22   15.94   13.20
   0  -4  23    3.35   15.21
   0   4  23   -3.26   13.91
   0   5   0    6.16    6.79
   0   5   0   -0.30    1.42
   0   5   0    0.86    2.76
   0   5   1   41.63    5.67
   0   5  -1   49.63    3.83
   0  -5   1   47.96    3.90
   0   5   1   48.17    4.21
   0   5  -1   71.36    9.78
   0   5   1   45.01    8.55
   0   5   2  460.14   22.85
   0   5   2  444.55   26.25
   0   5  -2  480.04   24.47
   0  -5   2  443.82   20.07
   0   5   2  484.87   20.40
   0   5   3  863.99   35.27
   0   5   3  900.91   37.66
   0  -5  -3  906.21   33.20
   0   5  -3  830.04   33.41
   0  -5  -3  819.43   32.93
   0   5  -3  865.68   37.87
   0   5   3  889.31   42.12
   0  -5   3  823.12   35.73
   0  -5   3  850.67   32.58
   0   5   3  882.00   32.64
   0   5   4  313.62   17.61
   0   5   4  317.36   18.40
   0  -5  -4  334.41   17.78
   0  -5  -4  306.59   14.39
   0   5   4  370.12   23.00
   0   5  -4  298.64   17.06
   0  -5   4  308.34   17.67
   0   5   4  320.46   15.16
   0  -5   4  280.23   14.70
   0   5   5   35.49    6.28
   0   5   5   37.52    5.87
   0  -5  -5   35.44    5.56
   0  -5  -5   34.57    4.25
   0   5   5   26.44    8.42
   0   5  -5   35.51    5.75
   0   5   5   26.65    3.90
   0  -5   5   24.60    6.96
   0   5   5   39.99    5.80
   0  -5   5   30.90    5.46
   0   5   6 1741.34   69.13
   0  -5   6 1708.64   69.12
   0   5   6 1789.10   71.56
   0   5   6 1717.70   70.18
   0  -5  -6 1800.28   69.89
   0   5   6 1727.09   75.20
   0   5  -6 1720.83   65.86
   0  -5   6 1765.18   72.68
   0   5   6 1792.33   66.50
   0  -5  -6 1777.15   67.45
   0   5   7    3.25    5.85
   0  -5   7    9.89    6.41
   0   5   7    1.26    4.18
   0  -5  -7    1.02    3.27
   0   5   7    4.35    2.94
   0  -5  -7    6.66    3.04
   0   5   7    7.22    8.44
   0   5  -7    1.46    3.02
   0  -5   7   -1.53    7.54
   0   5   7   -0.77    4.94
   0   5   7    1.75    3.27
   0  -5   8   90.31   11.49
   0   5   8  108.56   12.13
   0   5   8  101.65    9.84
   0   5   8  106.65   11.01
   0  -5  -8  112.37    9.97
   0   5   8   82.70   12.89
   0  -5   8  100.41   13.52
   0   5   8   92.57   10.12
   0   5   8   87.91    9.11
   0  -5  -8   94.57    9.12
   0   5   9   83.14   11.91
   0  -5   9   85.44   12.33
   0   5   9   80.65   10.08
   0   5   9   82.81    9.07
   0  -5  -9   87.50    9.08
   0  -5  -9   85.43    9.28
   0   5   9   68.35   13.32
   0   5   9   74.79   10.33
   0  -5   9   67.26   13.54
   0   5   9   95.63    9.93
   0   5  10   14.35    8.74
   0  -5  10   36.27   10.62
   0  -5 -10   15.26    5.15
   0   5  10   33.57    7.47
   0   5  10   27.08    5.89
   0   5  10   12.16   10.39
   0  -5  10   16.88   11.18
   0   5  10   26.08    6.71
   0   5 -10   21.42    9.15
   0  -5  11   30.91   11.27
   0   5  11   12.23    9.27
   0  -5 -11   26.87    6.06
   0   5  11   25.13   12.01
   0   5  11   11.61    4.97
   0  -5  11   13.76   11.32
   0   5  11   32.01    8.05
   0   5 -11   20.78   10.33
   0   5  12   98.51   14.99
   0  -5  12   65.33   13.95
   0   5  12   82.21   15.28
   0   5  12   85.04   10.04
   0  -5  12   96.29   17.36
   0   5 -12   99.73   15.05
   0   5  12   81.62   12.33
   0  -5  13   61.83   14.31
   0   5  13   77.34   14.74
   0   5  13   42.36   13.35
   0   5  13   77.83    9.80
   0  -5  13   87.15   17.76
   0   5  13   74.86   12.16
   0   5  14   89.77   10.84
   0  -5  14   92.26   17.57
   0   5  14   73.62   15.32
   0  -5  14   86.57   15.69
   0   5  14  102.91   16.34
   0   5  15    1.52    4.75
   0  -5  15   14.77   12.82
   0   5  15   -4.59   10.11
   0  -5  15   -9.65   10.80
   0   5  15   -4.69   10.49
   0   5  16   39.45    8.32
   0  -5  16   18.58   14.72
   0   5  16   21.69   12.36
   0  -5  16   20.33   13.33
   0   5  16   33.37   12.51
   0   5  17    6.54    5.70
   0  -5  17  -12.90   14.22
   0  -5  17    5.33   11.93
   0   5  17   10.09   11.30
   0   5  17    7.27   10.51
   0   5  18  168.38   16.01
   0  -5  18  164.07   23.88
   0   5  18  157.86   20.47
   0   5  18  156.38   20.24
   0   5  19   95.01   12.02
   0  -5  19   65.90   18.37
   0   5  19   84.67   16.20
   0   5  19   75.98   15.56
   0  -5  20  114.18   21.71
   0   5  20  109.71   13.43
   0  -5  21   -3.65   13.66
   0  -5  22    3.73   14.82
   0   6   0  827.19   41.60
   0   6   0  921.16   39.39
   0   6   0  876.41   33.96
   0   6  -1  786.95   37.20
   0   6   1  769.76   38.31
   0   6  -1  722.43   28.84
   0   6   1  715.67   29.78
   0   6  -1  780.89   34.61
   0   6   1  815.10   34.93
   0   6  -2  126.94   12.81
   0   6   2  121.33   14.16
   0   6   2  127.20    8.39
   0   6   2  125.39   10.71
   0   6   3   22.16    9.31
   0   6  -3    8.84    6.40
   0  -6   3    8.71    3.68
   0   6   3   13.01    3.98
   0   6  -4  305.97   18.60
   0   6   4  345.02   23.94
   0   6   4  294.66   19.21
   0  -6   4  326.24   17.50
   0   6   4  322.96   18.98
   0   6  -5   12.73    5.90
   0   6   5   26.16   10.61
   0   6   5   14.01    5.28
   0  -6   5   19.65    6.11
   0   6   5   12.83    4.57
   0   6   6   58.43   12.41
   0   6   6   33.59    6.84
   0  -6   6   37.23    8.76
   0  -6  -6   42.20    6.62
   0   6   6   37.30    6.50
   0  -6  -7  105.59   10.39
   0   6   7  104.89   10.61
   0   6   7  131.92   12.46
   0   6   7  105.20   15.64
   0  -6   7  124.37   13.46
   0   6   7  117.83    9.86
   0  -6  -8   26.25    6.16
   0   6   8   28.27    5.99
   0   6   8   31.47    7.35
   0   6   8   37.79   12.81
   0  -6   8   23.01    9.79
   0   6   8   16.41    5.25
   0   6   9   10.86   10.58
   0   6   9   19.02    7.00
   0  -6   9   12.88   10.35
   0   6   9   17.19    5.37
   0  -6  -9    7.43    4.44
   0  -6  10   40.54   11.83
   0   6  10   45.12    9.17
   0   6  10   47.96    8.36
   0   6  10   51.67   13.77
   0   6  11   31.28    6.85
   0   6  11   33.34    8.63
   0  -6  11   59.61   14.65
   0   6 -11   35.55   11.17
   0   6  11   39.40   13.58
   0   6  12  124.09   18.01
   0   6  12  178.54   14.65
   0  -6  12  123.93   17.99
   0   6  13    7.34   11.61
   0   6  13    7.69    5.63
   0  -6  13   10.21   11.94
   0   6  14   42.66   13.05
   0   6  14   39.83    7.88
   0  -6  14   40.71   14.26
   0   6  15  315.68   27.60
   0   6  15  318.85   22.42
   0  -6  15  375.67   30.87
   0   6  16    5.21   12.35
   0   6  16   11.87    6.06
   0  -6  16   -3.00   13.04
   0   6  17   63.47   15.40
   0   6  17   80.09   11.36
   0  -6  17   97.37   18.36
   0   6  18    2.66   11.93
   0   6  18   17.92    7.13
   0  -6  18   -3.26   14.15
   0   6  19   -8.05   12.37
   0   6  19   -3.67    5.55
   0  -6  19  -13.46   16.38
   0   6  20    2.68   10.43
   0  -6  20   27.73   15.52
   0   6  20   11.22    6.69
   0  -6  21   17.74   15.20
   0   6  21   41.88    9.35
   0   7   0   -6.50    9.40
   0   7   0   -2.43    4.01
   0   7  -1  194.67   17.61
   0   7   1  177.50   17.96
   0   7   1  203.11   14.69
   0   7  -1  175.56   13.91
   0   7  -2   -2.82    8.30
   0   7   2   -9.08    9.60
   0   7  -2   -2.42    4.01
   0   7   2   -1.24    3.99
   0   7   3  160.08   17.81
   0   7  -3  170.52   14.94
   0   7   3  148.86   12.73
   0   7  -4    1.16    7.14
   0   7   4    5.97   10.30
   0   7   4    2.76    5.05
   0   7   4    2.58    3.89
   0   7   5   76.70   14.47
   0   7   5   61.95    8.95
   0   7   5   37.39    7.50
   0   7   6  103.26   16.35
   0   7   6   87.31   10.97
   0   7   6  104.77   11.04
   0   7   7   95.93   16.19
   0   7   7  101.01   11.76
   0   7   7   96.20   10.53
   0  -7  -7   90.87   10.13
   0   7   8  359.90   28.18
   0   7   8  307.54   22.07
   0   7   8  311.92   20.67
   0   7   9   -7.14   12.59
   0   7   9   -1.74    5.74
   0   7   9   -1.47    4.30
   0   7  10  125.11   18.26
   0   7  10  109.28   13.37
   0   7  10  110.75   11.89
   0   7  11  180.53   17.65
   0   7  11  194.78   16.14
   0   7  12   -7.78   13.55
   0   7  12    5.94    6.55
   0   7  12    3.21    4.51
   0   7  13   47.83   13.58
   0   7  13   66.50   10.01
   0   7  14  -16.25   12.31
   0   7  14   -1.71    5.34
   0   7  15  303.93   28.39
   0   7  15  318.21   22.48
   0   7  16   19.67   13.20
   0   7  16   43.46    8.90
   0   7  17   -2.85   12.16
   0   7  17   16.70    6.95
   0   7  18    2.87   11.60
   0   7  18   -1.90    5.91
   0   7  19   20.18   14.04
   0   7  19   13.56    6.43
   0   7  20   22.96   14.17
   0   8   0   18.07   10.48
   0   8   0   24.94    6.62
   0   8   1  264.99   22.16
   0   8  -1  212.41   19.87
   0   8  -1  250.26   17.92
   0   8   1  256.46   17.95
   0   8   2   42.02   12.96
   0   8  -2   41.27   11.59
   0   8   2   63.64    9.17
   0   8  -2   38.66    7.55
   0   8   3  728.31   41.54
   0   8  -3  704.41   35.77
   0   8   3  750.86   36.64
   0   8   4   10.88   11.88
   0   8   4    6.19    5.91
   0   8   4   -1.47    4.98
   0   8   5  676.00   40.44
   0   8   5  671.44   34.39
   0   8   5  634.30   34.80
   0   8   6   -2.34   11.41
   0   8   6   16.69    6.38
   0   8   6    4.70    4.89
   0   8   7    4.84   12.08
   0   8   7   10.44    5.92
   0   8   7    9.54    5.55
   0   8   8   -2.49   11.50
   0   8   8    9.05    6.62
   0   8   8    8.00    5.44
   0   8   9  152.79   14.39
   0   8   9  171.97   16.65
   0   8  10   58.09   15.14
   0   8  10  100.50   13.29
   0   8  10   91.28   11.45
   0   8  11  360.54   30.30
   0   8  11  391.06   26.81
   0   8  11  350.72   23.84
   0   8  12    2.78   11.85
   0   8  12    1.74    4.51
   0   8  12    8.50    7.03
   0   8  13  156.15   21.56
   0   8  13  153.50   15.37
   0   8  14   -8.69   12.77
   0   8  14   -3.67    5.72
   0   8  15    8.81   13.54
   0   8  15   13.14    6.22
   0   8  16   -2.98   13.13
   0   8  16   -1.93    5.42
   0   8  17  -15.07   14.09
   0   8  17    7.87    6.50
   0   8  18   -9.12   14.60
   0   8  18    5.99    6.22
   0   9   0    5.90    9.58
   0   9   0    1.56    5.16
   0   9   1   28.96   11.64
   0   9   1   12.60    6.97
   0   9  -1   20.13    6.42
   0   9   2    6.50   10.54
   0   9  -2   -1.54    5.10
   0   9   2    1.59    5.39
   0   9   3  277.52   24.51
   0   9  -3  274.75   20.09
   0   9   3  330.12   21.56
   0   9   4   11.71   11.00
   0   9   4   42.67    8.59
   0   9   4   36.12    7.96
   0   9  -4   27.51    7.03
   0   9   5    7.28   11.20
   0   9   5    8.82    6.32
   0   9   5   15.06    5.99
   0   9   6    7.51   12.18
   0   9   6    1.83    5.88
   0   9   6  -10.41    5.74
   0   9   7  513.84   35.59
   0   9   7  469.91   28.90
   0   9   7  472.28   30.23
   0   9   8    7.96   12.42
   0   9   8   19.64    7.97
   0   9   8   14.03    6.58
   0   9   9  158.36   20.94
   0   9   9  130.60   15.47
   0   9   9  125.87   13.85
   0   9  10   11.20   13.10
   0   9  10   21.19    8.44
   0   9  10   12.65    6.48
   0   9  11   -5.73   13.93
   0   9  11   -6.58    7.25
   0   9  11   14.69    6.56
   0   9  12   -5.85   14.41
   0   9  12    5.63    5.85
   0   9  12    9.05    7.89
   0   9  13    2.98   13.14
   0   9  13    5.73    5.95
   0   9  14    3.03   13.57
   0   9  14   11.72    7.47
   0   9  15    3.07   13.34
   0   9  15    7.95    6.58
   0   9  16   15.56   13.50
   0   9  16   -2.03    6.89
   0  10   0  377.81   24.95
   0  10   1  905.74   45.92
   0  10  -1  965.27   46.47
   0  10   2   -4.61   11.63
   0  10   2    1.75    5.78
   0  10  -2    5.07    5.27
   0  10   3   40.69   13.94
   0  10   3   44.36    9.02
   0  10  -3   57.04    9.58
   0  10   4   29.76   13.22
   0  10   4   63.03   10.76
   0  10  -4   48.44    8.71
   0  10   4   52.54    9.84
   0  10   5   -2.56   11.44
   0  10   5   -1.91    5.57
   0  10   5   -3.69    5.57
   0  10  -5    3.32    5.01
   0  10   6   -2.64   12.16
   0  10   6   -1.98    6.35
   0  10   6   -1.92    5.60
   0  10   7   13.57   13.24
   0  10   7   34.70    9.72
   0  10   7   26.56    8.02
   0  10   8    2.78   12.45
   0  10   8    4.22    7.53
   0  10   8    3.81    5.76
   0  10   9   17.13   13.75
   0  10   9   37.08    9.36
   0  10   9   24.96    7.98
   0  10  10   81.65   17.36
   0  10  10  106.09   14.61
   0  10  10  105.23   13.35
   0  10  11    2.98   12.91
   0  10  11    9.30    8.70
   0  10  11    7.87    5.32
   0  10  12    9.12   12.77
   0  10  12   14.35    8.35
   0  10  12   18.00    7.33
   0  10  13   15.45   12.99
   0  10  13   26.46    8.58
   0  11   0   -3.73    6.98
   0  11   1  195.56   18.09
   0  11  -1  200.95   17.67
   0  11  -2   -1.83    4.94
   0  11   2    1.90    5.54
   0  11   3  154.97   15.61
   0  11  -3  108.81   13.64
   0  11   4   35.44    8.38
   0  11  -4   44.80    9.26
   0  11   5   79.52   17.49
   0  11   5  107.55   13.75
   0  11   6   -2.73   13.45
   0  11   6   12.32    6.80
   0  11   7  -16.81   14.32
   0  11   7   10.24    6.58
   0  11   8   -2.86   11.60
   0  11   8    6.13    5.96
   0  11   9  -17.60   14.46
   0  11   9   -4.12    5.79
   0  11  10    8.95   13.36
   0  11  10   -4.16    6.69
   0  11  11  -12.14   13.99
   0  11  11    4.19    6.32
   0  11  11    4.88    7.83
   0  11  12   19.98    9.76
   0  12   0   47.63   10.04
   0  12   1   74.35   11.52
   0  12  -1   57.01   11.07
   0  12   2   79.45   12.41
   0  12   3   -2.08    6.89
   0  12   4   21.26    8.48
   0  12   5   87.47   13.23
   0  12   6    2.17    6.33
   0  12   7   -2.15    6.70
   0  12   7    2.82   12.82
   0  12   8   -5.78   14.93
  -1   0  24   -8.05   18.57
  -1   0  23    7.93   16.06
  -1   0  23  -18.96   16.46
  -1   0  22   96.89   23.01
  -1   0  22   81.78   21.12
  -1   0  21    3.77   15.28
  -1   0  21   -3.63   14.16
  -1   0  20  190.67   27.43
  -1   0  20  180.38   26.08
  -1   0  19   17.66   15.33
  -1   0  19    3.43   14.42
  -1   0  18  145.73   24.01
  -1   0  18  142.63   22.06
  -1   0  17   -9.73   13.85
  -1   0  17   12.79   14.32
  -1   0  16    3.08   14.20
  -1   0  16    6.14   16.06
   1   0 -16    5.52    4.39
   1   0 -16   -1.41    5.72
  -1   0  15   26.47   15.54
   1   0 -15   -3.13    4.59
   1   0 -15    1.34    5.32
   1   0 -15   -1.76    6.58
  -1   0  15    2.91   14.16
   1   0 -14  292.35   17.29
   1   0 -14  280.66   18.52
   1   0 -14  310.99   21.77
   1   0 -13   -1.18    4.85
   1   0 -13   -2.73    3.55
  -1   0  13   -2.55   12.74
  -1   0  13    1.98    7.23
   1   0 -13    3.15    6.15
  -1   0  13   -2.99    5.87
   1   0 -12  667.78   32.75
   1   0 -12  707.26   31.02
  -1   0  12  744.83   42.41
  -1   0  12  650.04   37.13
   1   0 -12  701.59   35.60
  -1   0  12  661.41   31.73
   1   0 -11    3.01    4.07
   1   0 -11   -0.77    3.07
   1   0 -11    5.51    5.78
  -1   0  11   -3.33    6.36
  -1   0  11   -0.90    5.21
   1   0 -10    7.33    3.57
   1   0 -10    4.92    2.85
   1   0 -10    1.27    4.21
  -1   0  10    4.52    5.13
  -1   0  10    1.68    4.25
   1   0  -9    1.89    2.51
   1   0  -9    4.63    4.60
  -1   0   9   -1.35    4.84
  -1   0   9    0.78    3.88
   1   0  -8  197.50   11.30
  -1   0   8  218.79   15.37
   1   0  -8  226.24   14.69
  -1   0   8  197.80   12.74
   1   0  -7   -0.97    1.81
   1   0  -7    1.84    3.52
  -1   0   7    1.05    4.00
  -1   0   7    6.53    4.04
  -1   0   6   64.28    7.39
   1   0  -6   67.71    7.17
   1   0  -6   82.39    5.61
  -1   0   5   -0.74    3.10
   1   0  -5    2.00    3.37
   1   0  -5   -0.67    1.80
  -1   0   5    1.66    1.62
  -1   0   4  966.65   39.64
   1   0  -4  990.75   39.23
   1   0  -4 1007.35   36.98
  -1   0   4  974.95   36.85
   1   0  -4 1004.45   37.82
  -1   0   3    1.30    1.44
   1   0  -3   -0.80    1.39
  -1   0   3    0.38    0.66
   1   0  -3    0.19    0.76
   1   0  -3    1.85    1.13
  -1   0   2 8665.05  294.73
  -1   0   2 8268.84  294.99
   1   0  -2 8621.90  294.57
   1   0  -2 8175.60  294.92
  -1   0   2 8048.69  293.59
   1   0  -2 8549.56  293.68
   1   0  -2 8736.04  293.23
  -1   0   2 7958.16  293.14
  -1   0   1    0.16    0.13
   1   0   1    0.12    0.16
   1   0   1   -0.17    0.23
  -1   0  -1   -0.18    0.20
   1   0   1   -0.18    0.24
  -1   0  -2 2057.10   74.96
   1   0   2 2109.12   74.90
  -1   0  -2 2184.59   76.67
   1   0   2 2027.66   76.38
  -1   0  -2 2088.52   76.46
   1   0   2 2134.52   76.30
   1   0   3   -0.51    1.20
  -1   0  -3    2.26    1.56
  -1   0  -3    1.75    2.81
   1   0   3   -0.55    2.10
   1   0   3    0.52    1.96
  -1   0  -3    4.03    2.69
   1   0   4 2084.86   81.36
  -1   0  -4 2099.70   77.95
   1   0   4 2226.49   78.15
  -1   0  -4 2174.51   78.54
   1   0   4 2169.13   81.62
  -1   0  -4 2026.98   81.63
  -1   0  -4 2202.66   80.31
  -1   0  -5    1.19    1.96
   1   0   5   -0.91    5.45
  -1   0  -5   -0.96    4.05
   1   0   5    3.28    2.76
   1   0   5   -0.94    6.27
  -1   0  -5   -2.11    4.11
  -1   0  -6  164.88    8.97
   1   0   6  142.47    8.94
  -1   0  -6  143.12    9.85
   1   0   6  166.97   13.01
   1   0   6  159.84   13.16
  -1   0  -6  149.86   11.04
  -1   0  -7   -1.09    2.13
   1   0   7    2.57    5.48
  -1   0  -7    1.36    3.98
   1   0   7   -0.56    2.42
   1   0   7    5.24    6.22
  -1   0  -7   -0.97    4.33
  -1   0  -8  958.53   38.67
   1   0   8  926.99   38.62
  -1   0  -8  969.08   40.33
   1   0   8  947.89   45.15
   1   0   8  996.21   45.63
  -1   0  -8  960.99   42.37
  -1   0  -9   -1.38    2.75
   1   0   9    1.64    6.63
   1   0   9    4.82    3.39
   1   0   9   -3.36    7.40
  -1   0  -9    4.86    5.68
  -1   0 -10  449.03   21.06
   1   0  10  427.04   20.84
   1   0  10  399.42   26.88
   1   0  10  398.39   27.39
  -1   0 -10  417.14   24.48
  -1   0 -11   -0.84    3.12
   1   0  11   11.83    9.71
   1   0  11    4.02    3.60
   1   0  11    2.03    8.67
  -1   0 -11    1.45    6.09
   1   0  12  402.68   28.66
  -1   0 -12  416.84   21.32
   1   0  12  406.31   20.89
   1   0  12  393.64   28.85
  -1   0 -12  411.01   25.61
   1   0  13    2.28   10.97
   1   0  13   -1.80    4.65
   1   0  13    9.45   11.20
  -1   0 -13    1.66    7.44
  -1   0 -13    2.93    3.73
   1   0  14  216.56   23.16
   1   0  14  260.67   25.06
  -1   0 -14  240.59   19.90
  -1   0 -14  279.32   16.76
   1   0  15   -5.15   11.87
   1   0  15   -5.37   12.37
  -1   0 -15   -5.55    8.15
  -1   0 -15    1.11    4.59
   1   0  16  161.21   22.67
   1   0  16  192.44   23.29
   1   0  17    2.97   13.69
   1   0  17    8.52   13.82
   1   0  18   15.50   13.24
   1   0  18  -11.85   12.22
   1   0  19   -9.68   13.31
   1   0  19    6.16   12.23
   1   0  20  113.68   20.77
   1   0  20  124.27   20.45
   1   0  21   17.24   13.70
   1   0  21  -19.74   14.05
   1   0  22   -7.08   16.09
   1   0  22    6.77   13.71
   1   0  23  -18.12   17.86
   1   0  23   13.87   13.51
   1   0  24  -18.46   15.51
  -1  -1  24   28.69   17.82
  -1   1  24   35.27   18.10
  -1  -1  23   48.27   19.40
  -1   1  23   38.46   17.57
  -1   1  23   48.95   18.17
  -1  -1  23   67.79   19.10
  -1   1  22   79.24   20.52
  -1  -1  22   75.02   20.10
  -1   1  22   55.46   18.62
  -1  -1  22   77.66   19.92
  -1   1  21   36.68   17.21
  -1  -1  21   38.46   18.04
  -1   1  21   43.33   17.40
  -1  -1  21   39.79   17.20
  -1  -1  20   22.37   16.72
  -1   1  20   21.31   16.18
  -1  -1  20   28.19   18.46
  -1   1  20   56.24   17.79
  -1  -1  19  -14.39   16.10
  -1   1  19   24.04   16.93
  -1  -1  19    3.42   14.10
  -1   1  19  -20.45   16.38
  -1   1  18   29.61   15.63
  -1  -1  18   48.58   17.56
  -1   1  18   32.94   14.78
  -1  -1  18   13.23   16.34
  -1   1  17   12.59   15.16
  -1  -1  17   39.78   17.37
  -1   1  17   41.26   14.68
  -1  -1  17   35.07   15.36
  -1   1  16   86.57   19.21
  -1  -1  16   56.77   19.37
  -1   1  16  103.61   20.03
  -1  -1  16  107.23   20.70
   1  -1 -16   68.50    8.68
   1   1 -16   69.54   10.01
   1   1 -16   69.37    8.66
  -1  -1  15   76.27   19.30
  -1   1  15   69.99   19.19
   1  -1 -15   84.26    9.16
   1   1 -15   69.23    8.24
   1  -1 -15   83.34   10.37
  -1   1  15   42.24   16.04
  -1  -1  15   74.87   18.71
   1   1 -15   89.76   13.29
   1  -1 -15   61.07   10.61
  -1   1  15   80.08   14.00
   1  -1 -14   58.49    7.61
   1   1 -14   52.37    6.99
   1  -1 -14   64.28    9.15
  -1   1  14   95.32   18.11
  -1  -1  14   81.75   18.10
   1  -1 -14   40.64    9.02
  -1   1  14   78.64   13.26
   1   1 -14   58.81   11.04
  -1   1  14   58.68   10.07
   1  -1 -13  673.86   33.27
   1  -1 -13  710.09   31.67
   1   1 -13  676.23   30.70
  -1   1  13  583.47   39.59
  -1  -1  13  627.44   41.88
   1   1 -13  698.67   36.90
  -1   1  13  656.67   37.55
   1  -1 -13  647.76   34.52
  -1   1  13  717.14   34.28
   1   1 -12   63.03    6.39
   1  -1 -12   50.58    7.55
   1  -1 -12   47.59    6.13
  -1   1  12   44.40    9.04
  -1  -1  12   55.03    6.21
  -1  -1  12   41.66   13.76
  -1   1  12   61.36   13.95
   1   1 -12   60.45   10.31
   1  -1 -12   48.00    8.20
  -1   1  12   36.96    9.18
   1  -1 -11 1786.46   69.22
   1   1 -11 1748.03   66.30
   1  -1 -11 1735.94   67.05
  -1   1  11 1697.46   66.93
  -1   1  11 1716.01   69.91
  -1  -1  11 1700.23   65.18
  -1  -1  11 1535.37   76.68
  -1   1  11 1708.13   73.14
   1  -1 -11 1695.18   70.42
   1   1 -11 1678.66   71.99
  -1  -1  10  320.44   15.99
   1   1 -10  360.79   17.09
  -1   1  10  348.59   17.53
   1  -1 -10  309.94   16.95
   1  -1 -10  327.85   18.69
  -1   1  10  309.07   21.13
   1   1 -10  322.52   21.10
   1  -1 -10  330.63   19.78
  -1   1  10  329.71   19.79
  -1  -1   9  433.49   19.26
  -1   1   9  438.06   23.18
   1   1  -9  424.60   24.32
  -1   1   9  441.87   24.77
   1  -1  -9  399.73   22.59
   1   1  -9  416.01   19.64
   1  -1  -9  415.97   20.38
   1  -1  -9  464.33   22.31
  -1   1   9  464.38   20.98
  -1  -1   8 1232.57   47.25
  -1   1   8 1212.12   51.66
   1   1  -8 1243.43   52.89
   1  -1  -8 1259.11   51.49
  -1   1   8 1309.73   53.44
  -1   1   8 1241.07   48.94
   1   1  -8 1208.81   47.79
   1  -1  -8 1287.37   50.46
   1  -1  -8 1260.22   48.89
  -1  -1   7 3734.77  133.02
  -1  -1   7 3684.50  139.61
  -1   1   7 3691.91  138.43
   1   1  -7 3648.57  138.62
   1  -1  -7 3676.09  136.87
   1  -1  -7 3614.89  136.06
  -1   1   7 3821.52  134.89
   1  -1  -7 3736.73  134.83
  -1  -1   6 1983.33   73.99
  -1   1   6 2065.33   75.86
   1  -1  -6 2078.28   76.90
   1  -1  -6 2091.42   75.79
  -1  -1   6 2022.01   79.67
   1   1  -6 2038.03   79.06
  -1   1   6 2100.75   78.72
   1  -1  -6 2020.15   77.44
  -1   1   5 2812.47  104.86
   1  -1  -5 2907.74  104.64
   1  -1  -5 2860.85  103.61
  -1   1   5 2907.90  103.71
   1   1  -5 2844.71  106.56
  -1  -1   5 2828.70  106.90
   1  -1  -5 2779.52  106.33
  -1   1   5 2834.55  105.76
   1  -1  -5 2887.82  104.96
   1  -1  -4   50.65    4.85
   1  -1  -4   47.22    4.20
  -1   1   4   52.48    4.13
  -1   1   4   43.31    4.45
  -1   1   4   56.09    5.19
   1   1  -4   39.28    5.82
  -1  -1   4   50.12    6.09
   1  -1  -4   57.29    6.21
   1  -1  -3    6.29    2.38
   1  -1  -3    6.89    1.63
  -1   1   3    3.93    1.34
   1   1  -3    9.79    2.94
  -1   1   3    3.77    1.77
  -1  -1   3   10.20    3.06
  -1   1   3    3.97    2.23
  -1   1   3    4.92    1.78
  -1   1   2  455.22   18.83
   1   1  -2  467.82   19.08
  -1  -1   2  491.06   19.32
   1  -1  -2  441.48   18.52
   1  -1  -2  462.44   18.14
  -1   1   2  448.08   18.11
  -1   1   1  140.69    6.85
   1   1  -1  138.66    6.84
   1   1  -1  157.38    6.81
  -1   1   1  159.43    6.95
  -1  -1   1  159.40    6.98
   1  -1  -1  138.25    6.60
   1   1  -1  149.71    6.74
  -1   1   1  150.79    6.80
  -1  -1   1  154.39    6.92
   1  -1  -1  151.73    6.73
  -1   1   1  159.81    6.96
   1  -1  -1  147.79    6.65
  -1  -1   0 1301.68   47.03
  -1  -1   0 1286.64   46.17
   1   1   0 1281.09   46.19
   1   1   0 1277.35   46.87
   1   1   1 1708.39   63.88
   1   1   1 1741.77   62.97
  -1  -1  -1 1835.35   62.93
   1   1   1 1754.33   62.79
  -1  -1  -1 1750.03   62.91
  -1  -1  -1 1716.34   63.90
  -1   1  -1 1760.24   63.35
   1  -1   1 1777.72   63.18
   1  -1   1 1748.96   62.54
  -1  -1  -1 1693.96   62.67
   1   1   1 1711.51   62.52
  -1   1  -1 1769.39   62.70
  -1   1  -2  240.03   11.20
  -1  -1  -2  251.44   11.36
   1   1   2  240.58   10.91
   1  -1   2  245.72   10.95
   1   1   2  246.96   10.36
  -1  -1  -2  223.51   10.19
  -1  -1  -2  233.60   10.63
   1   1   2  234.72   11.38
  -1  -1  -2  204.48   11.25
   1  -1   2  246.61   11.58
  -1  -1  -2  232.21   10.78
   1   1   2  228.88   10.39
  -1   1  -2  237.89   11.81
  -1  -1  -2  240.26    9.97
   1   1   2  230.77   10.07
   1   1   3   40.50    3.39
  -1  -1  -3   30.52    3.17
  -1  -1  -3   39.63    3.88
  -1   1  -3   34.63    2.32
  -1   1  -3   38.41    5.22
   1   1   3   43.34    4.77
  -1  -1  -3   38.72    5.20
   1  -1   3   27.76    4.07
   1   1   3   39.62    4.50
  -1  -1  -3   42.23    4.88
  -1   1  -3   33.15    5.60
  -1  -1  -3   44.65    5.41
   1   1   3   43.06    4.59
   1  -1   3   50.78    5.47
  -1  -1  -3   43.38    3.81
   1   1   3   42.60    3.99
   1  -1   4 1050.41   43.53
   1   1   4 1063.69   43.61
  -1   1  -4 1094.40   39.18
   1   1   4 1075.40   40.90
  -1  -1  -4 1074.32   40.89
   1   1   4 1047.58   42.50
  -1  -1  -4 1089.00   43.02
  -1   1  -4 1062.88   45.13
  -1  -1  -4 1038.06   43.63
   1   1   4 1008.89   43.11
   1  -1   4 1048.13   44.22
  -1  -1  -4 1076.21   41.68
   1   1   4 1118.10   42.21
   1   1   5 2141.77   82.25
   1  -1   5 2091.22   81.88
   1   1   5 2173.85   78.39
  -1  -1  -5 2137.73   78.37
   1  -1   5 2156.96   76.11
  -1   1  -5 2161.08   76.67
  -1  -1  -5 2083.17   80.60
   1   1   5 1993.68   80.01
  -1   1  -5 2057.11   83.14
   1  -1   5 2089.78   82.90
   1   1   5 2185.51   82.02
  -1  -1  -5 2084.77   79.63
   1   1   5 2075.44   80.05
  -1  -1  -6    2.12    2.03
   1   1   6    2.69    1.92
   1  -1   6    1.86    1.48
   1   1   6    6.55    5.64
   1  -1   6    6.54    5.44
   1   1   6    2.97    3.76
  -1   1  -6   -1.10    2.65
  -1  -1  -6   10.78    5.56
   1   1   6    4.17    5.33
   1  -1   6    4.77    5.80
   1   1   6    3.27    3.61
  -1  -1  -6    0.74    3.17
   1   1   7 1011.78   39.98
  -1  -1  -7  992.82   39.89
   1  -1   7 1004.48   37.69
   1   1   7  997.08   41.79
   1  -1   7  919.19   44.45
   1   1   7  953.91   44.81
  -1   1  -7  999.08   38.90
   1   1   7  971.45   44.63
   1  -1   7  998.26   45.95
  -1   1  -7 1012.67   43.72
   1   1   7  985.67   42.87
  -1  -1  -7 1059.11   42.47
  -1  -1  -8    9.40    3.17
   1   1   8   12.19    3.15
   1  -1   8   11.52    2.45
   1  -1   8    7.28    6.23
   1   1   8    5.82    6.43
  -1   1  -8   19.44    4.29
   1   1   8   11.64    4.65
   1   1   8   15.53    6.52
   1  -1   8   20.41    7.36
  -1   1  -8   16.57    5.78
  -1  -1  -8   18.87    5.04
   1   1   8   15.72    5.34
  -1  -1  -9    1.49    2.61
   1  -1   9    8.82    2.74
   1  -1   9    9.79    8.14
   1   1   9   21.17    8.13
   1   1   9   11.53    5.25
  -1   1  -9    7.30    4.12
   1  -1   9   12.28    7.74
   1   1   9    9.56    7.24
   1   1   9    1.28    4.34
  -1  -1  -9   12.22    5.06
  -1   1  -9   14.41    6.13
  -1   1 -10  168.44   11.03
  -1  -1 -10  166.87   11.41
   1  -1  10  167.87    9.76
   1   1  10  199.79   13.71
   1  -1  10  187.32   17.63
   1   1  10  197.67   17.87
   1  -1  10  172.37   17.74
   1   1  10  150.14   15.90
  -1   1 -10  183.08   15.43
  -1  -1 -10  173.80   14.01
  -1  -1 -11   37.03    5.69
  -1  -1 -11   40.85    6.86
  -1   1 -11   27.81    4.85
   1  -1  11   36.10    4.67
   1   1  11   43.12   11.70
   1  -1  11   57.01   11.74
   1   1  11   46.60    7.76
   1   1  11   36.93   11.10
   1  -1  11   42.15   11.33
  -1   1 -11   32.46    8.70
  -1  -1 -11   36.10    7.33
  -1   1 -12   23.39    4.86
  -1  -1 -12   41.51    7.24
  -1  -1 -12   37.13    5.92
   1  -1  12   20.87    4.16
   1   1  12   44.49   11.83
   1  -1  12   46.75   12.54
   1   1  12   16.95    6.42
   1   1  12   12.65    9.77
   1  -1  12   36.54   11.43
  -1   1 -12   28.17    8.52
  -1  -1 -12   21.60    6.80
  -1  -1 -13  156.66   13.41
  -1   1 -13  123.74   10.37
  -1  -1 -13  154.29   11.58
   1   1  13  129.54   12.54
   1   1  13  127.16   17.36
   1  -1  13  102.58   16.59
   1  -1  13  144.36   19.93
   1   1  13  138.48   18.41
  -1   1 -13  141.24   15.44
  -1  -1 -13  136.90   13.76
  -1  -1 -14   -3.27    4.88
  -1   1 -14   -2.01    4.06
  -1  -1 -14    6.94    6.31
   1  -1  14    9.71   12.83
   1   1  14    7.25   12.50
   1   1  14    9.71    6.69
   1   1  14    2.43   11.34
   1  -1  14    5.21   12.35
  -1   1 -14    3.73    8.60
  -1  -1 -14   -1.63    6.23
   1  -1  15  269.74   26.29
   1   1  15  265.99   25.96
  -1  -1 -15  260.75   17.29
  -1  -1 -15  261.26   19.23
  -1   1 -15  289.55   17.46
   1   1  15  194.07   23.26
   1  -1  15  250.84   26.45
   1   1  15  292.87   18.77
  -1   1 -15  287.88   22.53
  -1  -1 -15  242.34   20.04
   1  -1  16  224.72   24.00
   1   1  16  134.74   19.64
   1  -1  16  192.29   23.95
   1   1  16  169.41   22.86
   1   1  17   11.29   12.25
   1  -1  17   14.17   12.10
   1  -1  17   -3.05   12.59
   1   1  17   -2.87   12.45
   1   1  18   11.78   13.96
   1  -1  18   -2.96   12.19
   1   1  18   -3.00   14.03
   1  -1  18   -3.19   15.10
   1  -1  19   -6.14   12.67
   1   1  19    9.17   13.48
   1  -1  19   -3.31   15.69
   1   1  19    6.25   14.40
   1  -1  20   38.18   14.55
   1   1  20   34.86   15.31
   1  -1  20   51.38   16.54
   1   1  20   67.95   17.90
   1   1  21   -6.54   13.00
   1  -1  21    3.28   12.80
   1   1  21   -3.34   13.77
   1  -1  21   -7.06   15.80
   1  -1  22   30.37   15.39
   1   1  22   30.28   14.65
   1  -1  22   28.98   15.77
   1   1  22   61.75   17.58
   1  -1  23   48.38   16.51
   1   1  23   62.05   17.11
   1  -1  23   51.83   18.59
   1   1  23   70.22   19.26
   1   1  24  -14.27   16.46
  -1   2  24   -3.77   16.08
  -1   2  23   36.98   17.79
  -1  -2  23   11.12   15.32
  -1   2  23   33.29   18.48
  -1  -2  23   28.43   16.78
  -1   2  22    7.25   13.84
  -1  -2  22   -3.64   15.28
  -1  -2  22    7.95   16.40
  -1   2  22    3.61   15.17
  -1  -2  21    7.12   15.22
  -1   2  21   17.70   15.86
  -1  -2  21   34.91   18.89
  -1   2  21   21.19   15.34
  -1  -2  20  100.77   22.14
  -1   2  20   68.95   18.79
  -1  -2  20   45.18   18.73
  -1   2  20   82.11   19.93
  -1  -2  19  128.16   22.74
  -1   2  19  153.84   23.88
  -1   2  19  177.82   24.63
  -1  -2  19  219.41   27.20
  -1  -2  18   42.42   16.75
  -1   2  18   45.24   15.81
  -1   2  18   44.35   16.27
  -1  -2  18   49.25   19.64
  -1   2  17    4.94    8.83
  -1  -2  17    3.37   12.87
  -1   2  17   12.08   12.00
  -1  -2  17   -3.15   14.30
  -1   2  17   12.45   14.95
  -1   2  16   32.83   15.17
  -1  -2  16   60.42   17.70
   1   2 -16   52.59    7.44
  -1   2  16   43.97   11.91
  -1  -2  16   25.71   17.79
  -1   2  16   51.76   17.73
  -1   2  16   65.01   13.41
  -1  -2  15    2.89   13.14
  -1   2  15   19.98   16.65
   1   2 -15    1.94    3.93
   1  -2 -15    1.45    5.78
  -1   2  15   -1.65    9.02
   1  -2 -15    7.02    4.56
  -1  -2  15    3.05   13.85
  -1   2  15   24.37   13.84
   1  -2 -15    6.13    9.69
   1  -2 -15    3.08    6.01
  -1   2  15    6.51    8.11
   1  -2 -14  325.90   19.06
   1  -2 -14  315.43   20.75
   1   2 -14  318.03   17.66
  -1   2  14  295.95   18.51
  -1   2  14  290.06   26.66
  -1  -2  14  320.52   29.69
   1  -2 -14  324.56   24.26
   1  -2 -14  287.61   20.26
  -1   2  14  333.55   24.87
   1   2 -14  296.84   23.11
  -1   2  14  299.10   22.12
  -1   2  13   78.19    8.54
   1  -2 -13   74.08    9.71
   1   2 -13   86.74    8.20
   1  -2 -13  107.54    9.71
  -1   2  13   77.73   12.33
  -1  -2  13   43.37   15.92
  -1   2  13   77.97   15.56
   1  -2 -13   68.99   11.93
   1  -2 -13   93.83   10.72
   1   2 -13   89.58   13.04
  -1   2  13   65.52   11.84
  -1   2  12   -1.01    3.04
   1  -2 -12   -6.10    5.12
   1   2 -12    0.76    3.04
  -1   2  12   -3.00    7.20
   1  -2 -12    0.98    3.24
  -1   2  12   -6.53   10.87
  -1  -2  12    7.58   12.29
   1  -2 -12   -6.31    5.02
   1  -2 -12    1.69    6.73
   1   2 -12   -1.69    7.20
  -1   2  12    8.59    7.69
  -1   2  11  328.23   18.31
   1  -2 -11  331.27   18.15
   1  -2 -11  294.64   18.90
  -1   2  11  291.93   21.01
  -1  -2  11  352.50   27.08
  -1   2  11  341.49   22.39
   1  -2 -11  305.35   21.54
   1  -2 -11  324.05   19.66
   1   2 -11  367.60   23.34
  -1   2  10  773.21   33.92
   1  -2 -10  737.82   33.51
   1  -2 -10  789.26   35.51
  -1   2  10  709.89   37.10
  -1  -2  10  753.19   28.70
  -1  -2  10  782.03   43.16
  -1   2  10  816.03   38.32
   1   2 -10  795.61   38.81
   1  -2 -10  750.71   37.94
   1  -2 -10  855.60   36.08
   1  -2  -9    1.58    2.60
  -1  -2   9   -0.16    1.32
   1  -2  -9    2.91    3.70
  -1   2   9   -2.42    2.66
  -1  -2   9    9.71    8.43
   1   2  -9    1.34    5.83
   1  -2  -9    1.30    5.37
   1  -2  -9   -0.95    4.00
  -1   2   9    4.99    4.66
  -1   2   9   -3.96    5.82
  -1   2   8 1085.51   43.17
   1  -2  -8 1056.03   42.94
   1  -2  -8 1088.66   44.36
   1   2  -8 1049.92   46.72
  -1   2   8 1062.17   45.83
   1  -2  -8 1020.37   45.98
  -1   2   8  969.49   46.39
   1  -2  -7  258.99   16.82
   1   2  -7  277.34   17.77
  -1   2   7  292.32   16.69
  -1   2   7  301.53   16.46
   1  -2  -7  305.46   16.17
   1  -2  -7  288.44   15.10
  -1   2   7  283.52   14.94
  -1   2   6  668.36   29.95
   1   2  -6  663.91   31.41
   1  -2  -6  676.56   30.75
   1  -2  -6  685.11   29.65
   1  -2  -6  709.59   28.98
  -1   2   6  682.33   28.70
  -1   2   6  658.05   29.74
  -1   2   5   93.20    7.16
   1  -2  -5   97.51    8.13
   1   2  -5   96.97    8.91
  -1   2   5   98.34    7.65
  -1   2   5   83.88    6.44
   1  -2  -5   96.82    6.81
   1  -2  -4  213.92   11.39
  -1   2   4  193.36   11.19
   1  -2  -4  230.21   12.28
  -1   2   4  275.51   14.64
   1   2  -4  243.25   13.53
   1  -2  -3   15.90    3.17
   1  -2  -3   18.17    2.89
  -1   2   3   15.24    2.67
  -1   2   3   30.88    4.11
   1   2  -2  347.16   15.30
   1  -2  -2  377.43   15.04
   1  -2  -2  358.58   15.23
  -1   2   2  339.07   15.26
  -1   2   2  361.78   15.69
   1  -2  -2  331.60   15.46
   1   2  -2  351.07   14.60
  -1  -2   1  219.79   10.97
   1   2  -1  211.28   10.30
  -1   2   1  208.96    8.79
  -1   2   1  203.70    9.28
   1  -2  -1  214.17    9.14
   1   2  -1  213.18    8.71
   1  -2  -1  205.53    8.60
  -1   2   1  218.29   10.36
   1   2   0  152.57    9.11
  -1  -2   0  154.22    9.64
   1  -2   0  176.03    7.23
  -1   2   0  159.49    7.25
   1   2   0  157.09    7.97
   1   2   1  126.34    8.85
  -1  -2  -1  137.31    9.47
  -1  -2  -1  136.99    6.56
   1   2   1  136.37    6.02
   1  -2   1  138.09    6.01
  -1   2  -1  136.99    6.53
   1  -2   1  118.86    6.77
  -1   2  -1  138.93    7.85
  -1  -2  -1  130.73    7.21
   1   2   1  155.01    7.54
  -1  -2  -2 4818.94  173.19
  -1  -2  -2 4800.97  175.99
   1   2   2 4750.98  175.33
   1   2   2 5005.88  173.61
   1   2   2 5051.53  173.53
   1   2   2 4877.67  171.34
  -1  -2  -2 4623.19  172.11
   1  -2   2 5007.31  174.05
  -1   2  -2 5083.27  175.01
  -1   2  -2 4856.14  173.49
  -1  -2  -2 4701.87  173.34
   1   2   2 4863.66  172.54
   1  -2   2 4870.53  172.52
   1   2   3 2954.11  109.80
   1  -2   3 3013.31  109.86
  -1  -2  -3 3113.83  112.78
   1   2   3 2967.79  111.93
  -1  -2  -3 3031.93  109.79
   1   2   3 3097.84  110.06
  -1  -2  -3 3095.85  109.55
   1   2   3 2917.47  109.35
   1   2   3 3076.88  108.85
   1  -2   3 2997.88  111.34
  -1   2  -3 2848.67  111.92
   1   2   3 3051.49  108.36
   1   2   4  103.50    8.75
   1  -2   4   99.96    8.48
   1   2   4  113.72    7.36
   1   2   4  114.88    7.98
  -1  -2  -4  111.77    7.90
  -1  -2  -4  115.20    7.48
   1   2   4  133.28    9.95
   1   2   4  138.13    8.75
  -1   2  -4  127.11   11.47
   1  -2   4  103.50    9.84
   1   2   4  118.79    7.42
   1   2   5 1391.34   57.20
   1  -2   5 1422.75   57.39
   1   2   5 1289.47   54.52
  -1  -2  -5 1487.16   54.90
  -1  -2  -5 1390.23   55.38
  -1   2  -5 1467.93   51.31
   1   2   5 1416.72   57.48
   1  -2   5 1429.51   58.78
   1   2   5 1372.46   56.29
   1   2   5 1434.92   55.26
  -1  -2  -5 1463.17   54.27
   1   2   6    0.63    2.09
  -1  -2  -6    3.73    2.67
  -1  -2  -6    3.73    2.06
   1  -2   6    1.06    4.89
   1   2   6    6.38    5.38
   1   2   6    4.90    4.95
  -1   2  -6    4.99    1.51
   1  -2   6    8.73    6.30
   1   2   6    1.90    4.44
   1   2   6    8.38    3.85
  -1  -2  -6    3.71    2.60
   1  -2   7  237.90   16.70
   1   2   7  259.62   17.34
  -1   2  -7  226.45   10.51
   1   2   7  239.78   15.69
   1   2   7  258.81   13.62
  -1  -2  -7  212.17   12.92
  -1  -2  -7  250.09   14.42
   1   2   7  247.55   16.31
   1  -2   7  223.35   17.35
  -1  -2  -7  226.91   13.49
   1   2   7  246.97   14.84
   1   2   8  817.75   39.64
   1  -2   8  787.93   39.31
   1   2   8  825.66   37.87
  -1   2  -8  823.40   31.59
   1   2   8  821.17   34.78
  -1  -2  -8  835.10   34.82
  -1  -2  -8  785.28   35.76
   1   2   8  808.70   38.94
   1  -2   8  812.27   40.99
   1   2   8  802.63   37.01
  -1  -2  -8  803.08   35.43
   1  -2   9  224.59   17.95
   1   2   9  212.88   17.91
   1   2   9  232.81   13.86
  -1  -2  -9  217.34   13.43
  -1  -2  -9  255.11   15.36
   1   2   9  191.63   15.23
  -1   2  -9  216.64   11.46
   1  -2   9  264.56   20.26
   1   2   9  203.63   17.22
   1   2   9  205.22   15.33
  -1  -2  -9  213.33   14.25
  -1   2  -9  236.70   17.34
  -1  -2 -10   17.59    4.47
   1   2  10   13.64    3.85
  -1  -2 -10   11.04    4.41
   1   2  10   17.68    9.05
   1  -2  10   15.98    8.43
   1   2  10    8.95    6.24
   1  -2  10    5.98    8.39
   1   2  10   10.00    7.81
   1   2  10   16.38    6.22
  -1  -2 -10   15.28    4.91
  -1   2 -10   18.33    7.36
   1   2  11  268.39   21.64
   1  -2  11  287.27   22.46
   1   2  11  239.47   15.34
  -1  -2 -11  217.80   16.11
  -1  -2 -11  273.68   15.80
   1   2  11  230.09   20.14
   1  -2  11  226.13   21.87
  -1  -2 -11  281.91   17.50
  -1   2 -11  261.57   19.92
   1   2  11  224.53   18.00
   1   2  11  255.16   18.33
   1  -2  12  388.85   28.34
   1   2  12  448.75   28.98
  -1  -2 -12  420.65   23.50
   1   2  12  386.18   21.23
  -1  -2 -12  386.08   21.09
   1   2  12  384.68   27.86
   1  -2  12  367.40   29.12
   1   2  12  368.88   24.95
  -1   2 -12  383.05   25.99
  -1  -2 -12  361.23   22.70
   1   2  12  412.46   24.56
   1   2  13  360.08   27.49
   1   2  13  343.86   22.72
   1   2  13  327.19   19.36
  -1  -2 -13  345.86   21.58
  -1  -2 -13  352.34   19.75
   1  -2  13  381.78   29.66
   1   2  13  349.28   26.49
  -1  -2 -13  284.89   20.58
  -1   2 -13  337.23   24.38
   1  -2  14    9.61   11.55
   1   2  14   -2.38   11.89
   1   2  14   10.49    7.75
  -1  -2 -14    8.04    4.31
  -1  -2 -14   22.98    6.91
  -1   2 -14   10.68    4.68
   1   2  14    9.29   12.54
   1  -2  14   13.33   12.48
  -1   2 -14   11.80    9.07
  -1  -2 -14   13.47    6.71
   1   2  15    2.52   11.95
   1  -2  15    7.64   12.23
   1   2  15    3.06    7.72
  -1   2 -15    5.18    4.42
   1   2  15    2.47   13.47
   1  -2  15    2.82   13.71
  -1  -2 -15    1.59    6.30
   1   2  16   49.69   10.18
  -1  -2 -16   45.04    9.52
   1   2  16   50.41   15.14
   1  -2  16   42.85   14.55
   1   2  16   49.53   14.88
   1  -2  16   38.64   15.80
   1   2  17   97.20   17.08
   1  -2  17  134.66   19.46
   1  -2  17   71.53   17.61
   1   2  17   76.76   17.27
   1  -2  18   17.56   13.87
   1   2  18   20.27   13.35
   1   2  18  -11.48   12.65
   1  -2  18    3.24   12.88
   1   2  19   42.15   15.12
   1  -2  19   69.89   16.50
   1   2  19   35.83   15.35
   1  -2  19   50.44   17.27
   1   2  20    3.12   12.86
   1  -2  20    3.15   14.31
   1  -2  20   10.42   14.83
   1   2  20    3.09   12.98
   1   2  21   -3.22   12.29
   1  -2  21    3.24   12.39
   1  -2  21    7.15   13.65
   1   2  21   15.95   13.39
   1  -2  22  136.66   22.63
   1   2  22  135.68   21.57
   1  -2  22   95.36   21.66
   1   2  22  140.96   22.13
   1  -2  23    3.41   14.07
   1   2  23  -10.17   15.63
   1   2  23  -16.76   16.10
   1  -2  23    3.74   15.17
  -1  -3  23  -14.44   17.80
  -1   3  23   17.87   16.71
  -1  -3  23   -8.11   17.60
  -1  -3  22   -7.09   15.14
  -1   3  22    3.50   14.18
  -1  -3  22   -7.96   16.11
  -1  -3  21   -3.47   15.77
  -1   3  21   -3.42   14.35
  -1  -3  21  -15.54   17.13
  -1   3  20   69.91   18.94
  -1  -3  20   40.66   16.55
  -1   3  20   32.32   15.39
  -1  -3  20   26.45   16.98
  -1  -3  19   23.05   15.19
  -1   3  19   22.62   14.25
  -1   3  19   -6.24   13.97
  -1  -3  19   10.99   14.84
  -1   3  18  118.13   16.90
  -1  -3  18   88.33   20.93
  -1   3  18  108.12   19.22
  -1  -3  18   95.61   19.27
  -1   3  18  106.16   20.69
  -1  -3  17   -3.07   13.97
  -1   3  17   12.02   12.18
  -1   3  17    7.95    9.93
  -1   3  17   15.52    5.29
  -1  -3  17   37.47   16.15
  -1   3  17    2.87   12.64
  -1   3  17    2.43    9.65
  -1  -3  16   11.80   13.80
  -1   3  16   23.05   15.41
  -1   3  16   13.70    9.54
  -1   3  16   21.66    6.00
  -1   3  16   -5.44   13.90
  -1  -3  16    6.51   15.02
  -1   3  16   20.51   10.52
  -1  -3  15   39.50   15.56
  -1   3  15    2.75   13.40
   1   3 -15   14.19    4.92
  -1   3  15   20.77    6.00
  -1   3  15    1.92    9.91
  -1  -3  15   15.49   17.42
  -1   3  15    5.14   13.00
  -1   3  15    8.55    8.99
  -1  -3  14   24.19   13.57
  -1   3  14   26.19   13.99
   1  -3 -14   -1.22    4.47
  -1   3  14   -5.60   10.18
  -1   3  14   -2.47    4.52
   1  -3 -14   -5.81    6.60
  -1   3  14   -9.63   13.27
  -1  -3  14   -5.86   15.66
   1  -3 -14    5.64    7.47
  -1   3  14    7.93    8.60
   1   3 -14    7.93   10.14
  -1   3  13  530.50   35.55
  -1   3  13  497.42   25.91
   1  -3 -13  514.32   26.28
   1  -3 -13  534.76   28.01
  -1  -3  13  488.50   36.41
  -1   3  13  509.19   33.57
  -1   3  13  448.83   29.37
   1  -3 -13  439.44   28.85
   1   3 -13  471.59   30.38
  -1   3  13  434.85   29.46
   1  -3 -12  749.65   36.72
   1  -3 -12  754.44   35.43
  -1   3  12  764.48   35.48
  -1  -3  12  694.25   44.79
  -1   3  12  725.07   41.86
   1   3 -12  795.74   40.93
  -1   3  12  771.28   39.58
   1  -3 -12  782.94   39.61
  -1   3  12  794.15   40.92
   1  -3 -11  217.91   14.42
  -1   3  11  204.19   14.01
   1  -3 -11  220.48   15.66
  -1   3  11  210.87   19.39
  -1  -3  11  211.05   21.97
   1   3 -11  168.43   16.56
  -1   3  11  196.76   16.66
   1  -3 -11  233.46   17.64
  -1   3  11  213.50   18.60
   1  -3 -10  890.29   39.68
  -1   3  10  888.83   38.42
   1  -3 -10  867.70   38.16
  -1  -3  10  788.88   45.89
  -1   3  10  874.28   41.16
   1  -3 -10  827.91   40.95
   1   3 -10  865.33   42.58
  -1   3  10  876.27   43.04
  -1   3   9  101.77   10.07
   1  -3  -9   98.70    8.70
  -1   3   9   93.39    8.59
  -1   3   9   94.60   12.52
  -1  -3   9  104.86   14.64
   1  -3  -9  114.66   11.13
  -1   3   9   84.43    9.50
   1   3  -9   99.38   11.68
  -1   3   8    8.54    3.13
  -1   3   8    3.24    3.37
  -1   3   8   21.35    8.15
  -1  -3   8    3.64    7.23
  -1   3   8    8.38    4.24
   1  -3  -8   -2.22    4.32
   1   3  -8   11.84    6.65
   1  -3  -8    4.16    3.05
  -1   3   7  320.05   17.29
  -1   3   7  362.97   19.30
  -1  -3   7  337.06   22.94
   1  -3  -7  295.55   18.14
   1   3  -7  312.95   20.01
  -1   3   7  339.55   18.31
   1  -3  -7  364.30   17.76
  -1   3   6  389.57   19.76
  -1   3   6  395.03   20.83
  -1  -3   6  397.26   24.55
   1  -3  -6  399.19   19.74
  -1   3   6  408.60   20.06
   1  -3  -6  391.84   20.39
   1  -3  -5  109.97    8.31
   1  -3  -5  132.92    9.12
  -1   3   5  126.44    9.00
  -1   3   5  129.47    9.55
   1  -3  -4   72.17    6.08
   1   3  -4   54.76    4.10
  -1   3   4   69.36    6.00
   1  -3  -4   60.44    5.43
  -1   3   4   59.94    6.15
   1   3  -3   86.01    5.73
   1  -3  -3   88.98    6.26
   1  -3  -3   73.93    5.38
  -1   3   3   91.27    6.70
  -1   3   3   63.80    5.86
   1  -3  -3   64.49    5.89
  -1   3   2  107.02    7.42
   1   3  -2  108.07    6.12
   1  -3  -2  111.25    6.10
   1  -3  -2  110.64    5.93
   1   3  -2  101.10    7.30
  -1   3   2  113.62    5.58
  -1   3   2  110.47    6.72
   1   3  -2  101.61    5.98
   1  -3  -2  103.80    5.85
  -1   3   1  125.85    5.60
   1   3  -1  117.03    8.34
  -1   3   1  113.43    6.45
  -1   3   1  124.50    7.95
   1  -3   0  743.83   26.87
   1   3   0  652.19   30.28
  -1   3   0  743.62   27.31
  -1   3   0  699.40   27.35
   1   3   0  667.50   28.79
  -1  -3  -1   21.84    3.18
   1   3   1   14.89    2.59
  -1  -3  -1   22.59    2.88
   1   3   1   17.72    5.17
  -1   3  -1   21.42    4.22
   1  -3   1   20.58    2.61
   1   3   1   16.11    1.62
   1   3   2   27.25    2.55
   1  -3   2   24.78    2.45
   1   3   2   22.36    3.49
   1   3   2   25.13    3.34
  -1  -3  -2   25.93    3.47
   1   3   2   27.60    5.85
   1  -3   2   23.50    3.54
  -1   3  -2   26.43    5.37
  -1  -3  -2   23.76    2.34
   1   3   3    2.53    2.22
   1   3   3    5.38    2.15
  -1  -3  -3   11.22    2.71
  -1  -3  -3   10.53    2.46
   1   3   3    4.76    4.99
   1  -3   3   12.16    3.69
  -1   3  -3   13.66    5.57
   1   3   3    7.15    1.65
   1   3   3    8.30    2.76
   1  -3   3    3.89    2.56
   1  -3   4 1308.47   51.26
   1   3   4 1278.94   51.32
  -1  -3  -4 1325.36   51.23
   1   3   4 1287.68   54.65
   1   3   4 1314.57   51.32
   1   3   4 1333.07   52.07
  -1   3  -4 1301.40   54.71
   1  -3   4 1354.64   53.51
   1   3   4 1320.38   49.75
   1   3   4 1322.08   49.73
  -1  -3  -4 1301.13   50.76
   1  -3   5 1996.05   77.19
   1   3   5 2028.51   77.43
   1   3   5 1994.13   79.57
  -1  -3  -5 2062.58   76.18
   1   3   5 1938.01   75.92
   1   3   5 2028.63   77.20
  -1  -3  -5 2112.93   77.00
   1  -3   5 2073.71   79.71
   1   3   5 1933.64   75.65
   1   3   5 2049.18   75.28
  -1  -3  -5 1907.36   76.17
   1   3   6  108.99   10.66
   1  -3   6  145.14   11.60
  -1  -3  -6  147.67    9.89
  -1  -3  -6  136.18   10.19
   1   3   6  138.66    9.71
   1   3   6  147.26   10.69
   1   3   6  150.90   12.74
   1  -3   6  150.31   13.15
   1   3   6  134.39   10.52
   1   3   6  131.03    9.54
   1   3   7  554.16   29.08
   1  -3   7  566.02   29.22
  -1  -3  -7  582.63   27.34
  -1  -3  -7  586.19   26.65
   1   3   7  576.41   26.46
  -1   3  -7  570.71   21.42
   1   3   7  557.62   29.70
   1   3   7  550.83   27.80
   1  -3   7  571.30   31.12
   1   3   7  581.53   26.89
   1   3   8   -0.87    2.63
  -1  -3  -8   -1.00    3.83
  -1  -3  -8   -0.88    3.06
   1   3   8   -4.10    6.39
  -1   3  -8   -0.38    1.70
   1   3   8    2.04    4.05
   1  -3   8    1.66    7.45
   1   3   8   -1.20    5.98
   1  -3   8   -1.37    6.51
   1   3   8   -1.37    5.67
   1   3   9  235.15   18.56
   1  -3   9  290.06   20.15
   1   3   9  277.38   19.00
  -1   3  -9  243.49   10.79
  -1  -3  -9  266.48   16.46
   1   3   9  247.29   15.18
  -1  -3  -9  242.21   15.20
   1  -3   9  275.48   21.34
   1   3   9  196.04   16.99
   1   3   9  269.60   17.17
   1   3  10  220.95   18.68
   1  -3  10  203.40   18.05
  -1  -3 -10  203.91   15.01
  -1  -3 -10  214.67   14.12
   1   3  10  225.11   14.50
   1   3  10  233.86   18.12
   1   3  10  233.60   18.32
   1  -3  10  174.70   19.00
  -1   3 -10  169.75   16.93
   1   3  10  234.83   16.55
   1  -3  11    1.89    7.94
   1   3  11   13.11    9.35
  -1  -3 -11    3.13    3.45
  -1  -3 -11   10.04    5.45
   1   3  11    9.62    4.00
   1   3  11   15.82    8.18
   1  -3  11   15.47   11.30
   1   3  11   -1.72    7.80
  -1  -3 -11    7.48    4.25
   1   3  11    7.34    6.27
  -1   3 -11    3.49    7.93
   1  -3  12    6.15    9.18
   1   3  12    6.08   10.12
  -1  -3 -12    1.11    3.86
   1   3  12    1.14    3.76
  -1  -3 -12    1.34    4.99
   1   3  12   -6.59    7.80
   1  -3  12  -11.93   11.76
   1   3  12    1.88   10.37
  -1   3 -12    5.57    8.18
  -1  -3 -12   -1.17    4.91
   1   3  12   -1.61    7.11
   1  -3  13   46.30   13.00
   1   3  13   41.29   12.60
  -1  -3 -13   49.11    7.26
   1   3  13   69.77    8.50
  -1  -3 -13   76.44   10.53
   1   3  13   51.15   11.29
   1  -3  13   40.73   14.44
   1   3  13   54.87   13.49
  -1   3 -13   60.86   12.30
   1   3  13   61.66   10.90
  -1  -3 -13   49.42    7.95
   1  -3  14  145.78   19.25
   1   3  14  106.55   17.64
  -1  -3 -14  108.41   11.07
   1   3  14  138.29   15.49
   1   3  14  121.14   11.43
   1   3  14  135.04   17.97
   1  -3  14   67.77   16.54
  -1  -3 -14  100.62   11.56
   1   3  14   82.11   13.36
   1   3  15   17.97   10.77
   1   3  15   22.51    6.13
   1  -3  15   -5.72   13.38
   1   3  15   16.23   11.15
   1  -3  15   22.41   13.17
   1   3  15    7.35   10.47
   1  -3  16   96.09   18.74
   1   3  16   93.49   17.17
   1   3  16  118.51   14.48
   1   3  16   77.31   16.31
   1  -3  16   99.76   17.22
   1  -3  17   78.70   17.52
   1   3  17   62.08   15.01
   1   3  17   88.40   12.58
   1  -3  17   60.52   15.35
   1   3  17   51.32   14.33
   1  -3  18    8.61   11.83
   1   3  18   -8.46   12.43
   1  -3  18   -6.55   15.52
   1   3  18  -10.82   12.65
   1   3  19   14.64   14.07
   1  -3  19    5.97   12.74
   1   3  19   -5.63   12.21
   1  -3  19   10.17   14.48
   1   3  20    3.03   11.58
   1  -3  20   12.34   13.39
   1   3  20   17.48   12.24
   1  -3  20   34.99   16.59
   1  -3  21   28.62   14.50
   1   3  21   31.28   14.87
   1  -3  21   39.55   16.38
   1  -3  22   13.05   14.61
   1   3  22   -3.21   12.77
   1  -3  22   11.05   15.72
   1   3  23   -6.57   13.56
   1  -3  23   -3.33   14.70
   1  -3  23   -7.50   16.54
  -1  -4  23   -3.48   14.85
  -1   4  23    6.79   15.66
  -1   4  22   -3.33   13.72
  -1  -4  22   10.25   14.10
  -1  -4  22   27.63   16.85
  -1   4  21   -9.75   14.77
  -1  -4  21   16.74   14.05
  -1  -4  21  -19.31   17.81
  -1   4  20  186.46   24.40
  -1  -4  20  173.08   24.51
  -1  -4  20  161.82   25.45
  -1   4  19    3.23    5.34
  -1  -4  19   -7.31   15.07
  -1  -4  19    3.17   12.85
  -1   4  19   15.34   13.74
  -1  -4  18   46.11   17.03
  -1   4  18   38.51   15.06
  -1   4  18   43.35   12.45
  -1   4  18   56.38    9.22
  -1  -4  18   63.60   18.96
  -1   4  18   50.49   12.87
  -1  -4  17  118.56   19.62
  -1   4  17  151.11   20.77
  -1   4  17  126.37   17.62
  -1   4  17  115.31   12.51
  -1  -4  17   91.88   20.09
  -1   4  17  105.05   16.31
  -1   4  16   49.20   14.91
  -1  -4  16   91.05   18.01
  -1   4  16   66.45   13.98
  -1   4  16   58.46    8.94
  -1  -4  16   45.65   16.80
  -1   4  16   91.30   17.59
  -1   4  16   51.72   12.58
  -1   4  15   36.51   14.96
  -1  -4  15   46.16   15.86
  -1   4  15   16.80    5.92
  -1   4  15   19.54   10.73
  -1   4  15   38.28   13.97
  -1  -4  15   18.66   14.56
  -1   4  15   16.83    8.86
  -1  -4  14   20.65   13.24
  -1   4  14   32.19   13.69
   1  -4 -14   50.20   10.61
  -1   4  14   31.78   12.41
  -1   4  14   29.57    6.64
  -1   4  14   35.86   14.13
  -1  -4  14   20.66   15.81
  -1   4  14   31.27    9.82
  -1  -4  13  427.19   32.39
  -1   4  13  385.84   30.12
  -1   4  13  425.19   24.09
   1  -4 -13  439.51   24.06
  -1   4  13  443.62   29.86
  -1   4  13  388.81   29.17
  -1  -4  13  414.87   33.75
  -1   4  13  429.38   27.69
   1  -4 -13  422.32   26.61
   1   4 -13  411.07   28.64
  -1  -4  12  227.07   23.22
  -1   4  12  281.17   23.71
   1  -4 -12  260.47   16.80
  -1   4  12  204.56   15.79
  -1   4  12  254.29   22.11
  -1  -4  12  223.79   24.56
  -1   4  12  254.22   22.02
  -1   4  12  224.12   18.77
   1  -4 -12  271.47   19.46
   1   4 -12  268.83   21.50
  -1   4  11  143.45   18.36
  -1   4  11  148.62   12.40
  -1   4  11  157.23   17.87
   1  -4 -11  184.43   13.14
  -1   4  11  128.31   16.01
  -1  -4  11  143.06   19.52
   1   4 -11  172.42   17.10
  -1   4  11  166.67   15.06
   1  -4 -11  170.71   14.48
  -1   4  10  175.67   12.91
  -1   4  10  171.25   14.37
  -1   4  10  139.03   16.34
   1  -4 -10  166.01   12.60
  -1   4  10  147.03   15.92
  -1  -4  10  192.90   20.53
   1   4 -10  169.44   15.92
  -1   4  10  163.88   13.90
   1  -4 -10  163.18   13.73
  -1   4   9  376.95   22.83
  -1   4   9  439.30   22.24
  -1   4   9  406.99   26.80
   1  -4  -9  393.53   21.49
  -1  -4   9  367.90   27.67
  -1   4   9  405.35   22.74
   1  -4  -9  414.81   22.95
   1   4  -9  408.22   25.19
  -1   4   8  532.43   26.27
  -1   4   8  488.16   24.09
  -1   4   8  429.85   28.37
  -1  -4   8  475.76   29.92
   1  -4  -8  451.61   23.95
  -1   4   8  498.27   24.66
   1   4  -8  422.81   26.19
   1  -4  -8  436.30   23.12
  -1   4   7  193.67   12.44
  -1   4   7  156.71   12.50
  -1  -4   7  171.50   16.66
  -1   4   7  163.23   11.85
   1  -4  -7  173.31   12.01
   1  -4  -7  159.98   11.59
  -1   4   6  681.74   31.04
  -1   4   6  649.34   31.59
   1  -4  -6  645.31   30.28
   1   4  -6  704.03   25.64
  -1  -4   6  681.77   35.31
   1  -4  -6  633.32   29.57
   1  -4  -5   -0.80    2.79
  -1   4   5   -0.86    2.42
   1  -4  -5    1.89    2.41
   1   4  -5   -0.70    2.48
  -1  -4   5   -2.52    5.89
  -1   4   5   -1.95    2.94
  -1   4   4   13.66    3.64
   1  -4  -4   19.08    3.94
   1  -4  -4   18.56    4.10
   1  -4  -4   13.22    2.80
   1   4  -4   16.73    3.78
  -1  -4   4   17.93    6.23
  -1   4   4   11.55    3.88
  -1   4   3  102.65    7.56
  -1   4   3  116.60    8.54
   1  -4  -3   95.42    6.39
   1  -4  -3  103.33    6.36
   1   4  -3  104.90    6.76
   1   4  -3  109.85    8.00
  -1   4   3   96.09    5.50
  -1  -4   3  113.56    9.70
   1  -4  -3   92.68    6.26
  -1   4   2   48.15    5.22
   1  -4  -2   36.13    3.23
  -1   4   2   32.51    3.69
  -1   4   2   36.16    2.36
   1   4  -2   32.10    5.45
  -1  -4   2   33.79    5.26
   1   4  -2   31.70    2.67
   1  -4  -2   24.21    2.25
   1   4  -1  640.92   28.24
  -1   4   1  608.53   24.71
  -1   4   1  629.63   23.54
  -1  -4   1  591.63   24.81
  -1   4   1  598.33   27.19
   1   4   0   51.51    5.18
  -1   4   0   54.43    4.02
  -1   4   0   63.25    5.25
   1   4   0   49.40    3.03
   1  -4   0   54.53    3.68
   1   4   0   58.49    7.22
   1   4   1  189.46   11.13
   1  -4   1  185.57    9.12
   1   4   1  196.29   13.53
  -1   4  -1  169.67   10.98
   1   4   1  194.80    8.63
   1   4   2  710.15   30.28
  -1  -4  -2  708.84   30.05
  -1  -4  -2  703.66   26.36
   1   4   2  675.23   32.93
   1  -4   2  698.47   28.57
  -1   4  -2  689.84   31.08
   1  -4   2  692.01   26.26
   1   4   2  716.72   26.36
   1  -4   3  159.27    8.05
   1   4   3  152.06    7.97
  -1  -4  -3  151.44    9.98
   1   4   3  118.67    9.35
   1   4   3  139.32   10.11
   1   4   3  160.23   13.04
   1  -4   3  154.48   10.11
  -1  -4  -3  144.90    7.78
   1   4   4  150.69    9.16
   1  -4   4  134.22    8.75
  -1  -4  -4  136.82    9.65
   1   4   4  146.53   10.55
   1   4   4  134.75    9.93
   1   4   4  134.24   12.72
   1   4   4  145.94    6.93
   1  -4   4  123.13   10.15
  -1  -4  -4  129.34    8.17
   1   4   5  229.45   13.74
   1  -4   5  215.92   13.41
   1   4   5  256.90   15.25
   1   4   5  239.05   14.17
  -1  -4  -5  250.29   14.26
   1   4   5  217.51   16.91
   1  -4   5  253.34   16.36
   1   4   5  263.89   12.31
   1   4   5  228.65   12.55
  -1  -4  -5  231.82   13.12
   1   4   6   83.58    7.60
   1   4   6   63.68    7.70
  -1  -4  -6   79.60    7.44
   1   4   6   77.76    8.65
   1  -4   6   74.92    8.36
   1   4   6   64.52   10.35
   1  -4   6   84.92   10.56
   1   4   6   69.14    7.08
   1   4   6   56.54    6.22
  -1  -4  -6   66.60    7.12
   1  -4   7  490.31   25.90
   1   4   7  457.79   25.47
   1   4   7  521.66   24.88
   1   4   7  520.75   26.17
  -1  -4  -7  504.36   24.50
   1   4   7  522.29   29.14
   1  -4   7  525.27   28.93
   1   4   7  498.26   24.48
   1   4   7  490.11   24.04
  -1  -4  -7  493.51   24.90
   1   4   8   68.82    8.74
   1   4   8   63.27    7.24
  -1   4  -8   68.89    3.65
  -1  -4  -8   65.58    7.28
   1   4   8   73.28   11.55
  -1  -4  -8   58.41    8.08
   1   4   8   67.38    7.77
   1   4   8   81.06    9.25
   1  -4   8   71.48   11.39
   1   4   8   78.45   10.35
   1  -4   8   48.74    8.75
   1  -4   9 1053.19   47.04
   1   4   9  919.71   45.57
  -1  -4  -9  944.32   42.86
   1   4   9 1031.54   43.68
  -1  -4  -9 1022.75   44.55
   1   4   9 1010.55   48.05
   1   4   9  978.25   44.54
   1  -4   9 1044.43   50.06
  -1  -4  -9  972.16   44.69
   1   4   9  983.35   43.86
   1   4  10   31.16    5.74
  -1  -4 -10   41.41    7.28
  -1  -4 -10   43.53    6.88
   1   4  10   21.09    9.10
   1  -4  10   11.45    8.14
   1   4  10   41.88   10.60
   1  -4  10   18.29   10.80
   1   4  10   43.01    9.86
  -1  -4 -10   26.25    7.55
   1   4  10   42.33    8.08
  -1  -4 -11   -5.33    5.97
   1   4  11   -1.18    3.80
  -1  -4 -11    1.15    3.81
   1   4  11   -1.82    9.71
  -1   4 -11    3.69    8.52
  -1  -4 -11    7.57    6.67
   1   4  11   -2.86    7.04
   1   4  11   -4.65    8.88
   1  -4  11   -8.84   11.68
   1   4  11   -1.78    8.55
   1  -4  11    9.02    9.11
   1  -4  12  445.92   30.67
   1   4  12  511.36   31.57
  -1  -4 -12  492.30   27.70
   1   4  12  503.09   26.56
  -1  -4 -12  568.09   27.38
   1   4  12  499.48   31.18
   1   4  12  488.91   29.73
   1  -4  12  429.12   32.47
   1   4  12  499.29   28.66
  -1   4 -12  419.76   30.04
  -1  -4 -12  468.77   28.75
   1   4  13   26.03    6.17
   1   4  13   43.59   12.36
   1  -4  13   19.05   11.94
   1   4  13   31.03   11.85
   1   4  13   14.85   10.68
   1  -4  13   20.43   12.78
   1   4  13   32.61    9.88
  -1   4 -13   43.18   12.14
  -1  -4 -13   35.21   10.22
   1   4  14  498.03   31.90
   1  -4  14  414.62   30.52
   1   4  14  379.42   23.78
   1   4  14  391.13   28.09
   1   4  14  452.25   30.07
   1  -4  14  456.14   34.13
   1   4  14  421.75   27.80
  -1  -4 -14  382.67   27.38
   1   4  15    4.69   10.17
   1  -4  15    7.21   10.76
   1   4  15    7.14    4.98
   1   4  15   -4.07    9.39
   1  -4  15    2.86   14.11
   1   4  15    8.53   10.11
   1   4  15    2.00    7.63
   1   4  16    2.47   10.00
   1  -4  16   10.15   11.87
   1   4  16   11.85    5.17
   1   4  16   10.39   10.38
   1  -4  16   15.06   12.65
   1   4  16    8.57    8.01
   1   4  17   29.38   10.52
   1   4  17   26.12    6.85
   1   4  17   41.43   13.27
   1  -4  17   29.32   12.50
   1  -4  17   28.29   14.32
   1   4  18   44.56   12.41
   1  -4  18   50.08   14.51
   1   4  18   70.21   16.14
   1  -4  18   62.04   17.37
   1  -4  19   11.57   12.14
   1   4  19   -2.81   12.37
   1  -4  19  -10.16   13.72
   1   4  20   69.68   16.16
   1  -4  20  107.71   19.21
   1  -4  20  111.69   22.49
   1  -4  21   52.39   15.95
   1   4  21   86.78   17.64
   1  -4  21   86.00   20.10
   1  -4  22   -6.32   14.14
   1   4  22  -12.29   13.97
   1  -4  22  -14.63   15.62
   1   4  23   43.94   15.35
   1  -4  23   41.92   16.92
  -1  -5  22   81.19   21.28
  -1  -5  21   15.16   15.64
  -1  -5  20   48.12   17.35
  -1   5  20   33.49    8.11
  -1   5  19   -2.55   11.74
  -1   5  19   -3.44    5.20
  -1  -5  19   -7.19   15.86
  -1   5  19   -5.70   13.69
  -1   5  18   50.49   15.34
  -1   5  18   48.70    9.33
  -1  -5  18   34.83   16.38
  -1   5  18   68.85   16.44
  -1   5  17    7.50   12.34
  -1   5  17   14.62    6.23
  -1  -5  17   40.34   16.79
  -1  -5  17   22.51   13.71
  -1   5  17   23.84   13.71
  -1   5  16  187.17   21.34
  -1   5  16  180.97   15.54
  -1  -5  16  144.66   22.78
  -1   5  16  159.81   20.46
  -1  -5  16  164.53   22.35
  -1  -5  15    2.57   10.99
  -1   5  15   16.92   11.30
  -1   5  15   -1.52    5.02
  -1   5  15  -14.46   12.74
  -1  -5  15   -3.07   12.21
  -1   5  15    6.24    7.78
  -1   5  14   11.45   11.30
  -1  -5  14   39.03   13.98
  -1   5  14   20.54    6.29
  -1   5  14   21.23   12.21
  -1  -5  14    8.76   13.48
  -1   5  14    9.71    7.88
  -1   5  13  280.58   24.87
  -1  -5  13  303.24   26.44
  -1   5  13  312.91   26.17
  -1   5  13  291.50   19.58
  -1  -5  13  309.19   29.10
  -1   5  13  285.45   22.31
  -1  -5  12   34.34   12.87
  -1   5  12   10.10   11.15
  -1   5  12   12.14    5.08
  -1   5  12   26.84   11.97
  -1  -5  12   10.33   12.91
   1   5 -12   23.40   10.55
  -1   5  12   31.26    8.33
  -1   5  11   93.70   14.40
  -1  -5  11   91.49   15.57
  -1   5  11   68.44    8.83
  -1   5  11  103.67   11.73
   1  -5 -11   75.57    9.20
   1  -5 -11   80.52   10.05
  -1   5  11   41.31   13.50
  -1  -5  11   74.79   16.28
   1   5 -11   49.75   11.25
  -1   5  11   84.81   10.51
  -1   5  10   98.11   13.90
  -1  -5  10  111.27   15.03
  -1   5  10   95.14    9.98
  -1   5  10   85.95   10.88
   1  -5 -10   79.26    9.17
   1  -5 -10   84.90    9.82
  -1   5  10  101.21   15.81
  -1   5  10   90.88   13.42
  -1  -5  10  102.37   17.45
  -1   5  10   93.25   10.54
   1   5 -10   69.31   12.25
  -1  -5   9   18.18    9.98
  -1   5   9    4.69    8.52
  -1   5   9   -1.44    4.50
  -1   5   9   -2.37    3.69
   1  -5  -9   -1.11    3.58
   1  -5  -9    3.25    4.23
  -1   5   9   -2.04   10.20
  -1   5   9    1.25    7.49
  -1  -5   9   -4.08    9.27
  -1   5   9   -2.37    4.71
   1   5  -9    4.87    7.38
  -1  -5   8  273.96   20.39
  -1   5   8  279.16   19.85
  -1   5   8  280.55   17.52
  -1   5   8  298.95   19.22
   1  -5  -8  294.70   17.65
  -1   5   8  289.25   22.88
  -1  -5   8  295.36   22.51
  -1   5   8  258.47   17.95
  -1   5   8  299.17   17.52
   1  -5  -8  260.44   16.38
  -1   5   7    1.28    4.68
  -1   5   7    4.44    3.67
   1  -5  -7    1.02    3.18
   1  -5  -7   -0.83    2.82
  -1   5   7   -3.84    8.05
   1   5  -7   -0.25    1.81
  -1  -5   7    4.94    7.91
  -1   5   7    1.80    5.87
  -1   5   7    1.22    6.60
  -1  -5   7   10.27    8.31
  -1   5   6   51.84    7.72
  -1   5   6   45.35    6.59
   1  -5  -6   61.71    7.09
   1  -5  -6   41.55    5.27
  -1   5   6   44.73   10.72
   1   5  -6   47.99    4.66
  -1   5   6   44.66    8.32
  -1  -5   6   55.49    9.06
  -1   5   5   92.35    9.12
   1  -5  -5   67.94    7.32
  -1   5   5   57.59    6.95
   1  -5  -5   64.46    5.77
   1   5  -5   65.90    6.90
   1  -5  -5   57.11    6.34
   1   5  -5   53.01    5.98
  -1  -5   5   67.58   10.51
  -1  -5   5   65.29    8.38
  -1   5   5   67.58    8.26
  -1   5   4  280.94   15.93
  -1   5   4  272.36   16.39
   1  -5  -4  276.50   13.66
   1  -5  -4  301.52   13.74
   1   5  -4  270.60   13.98
  -1   5   4  294.27   12.07
   1   5  -4  283.07   15.35
  -1  -5   4  265.12   17.25
  -1  -5   4  279.91   15.33
   1  -5  -4  274.16   13.60
   1   5  -4  264.10   13.84
  -1   5   4  261.97   14.81
   1   5  -3  946.00   36.44
   1  -5  -3  956.30   36.02
  -1   5   3  976.10   39.51
  -1   5   3  996.70   41.59
   1   5  -3  983.86   36.61
   1  -5  -3 1060.77   37.54
   1   5  -3  956.47   40.48
  -1  -5   3  927.52   40.22
  -1   5   3  912.83   37.17
  -1  -5   3  921.62   37.41
  -1   5   2  807.72   34.87
   1   5  -2  773.05   34.84
  -1  -5   2  779.58   32.12
  -1   5   2  767.73   31.86
   1   5  -1  522.53   26.49
   1   5  -1  542.93   20.21
  -1   5   1  545.01   22.44
  -1   5   1  506.20   21.09
  -1  -5   1  524.98   21.27
  -1   5   1  524.30   25.36
   1   5  -1  534.66   24.98
   1  -5   0  156.95    7.94
   1   5   0  160.26   12.96
  -1   5   0  157.12    8.42
   1   5   0  174.77   11.17
   1   5   0  156.46    7.32
   1   5   1  277.17   15.31
   1   5   1  266.44   11.69
   1   5   1  249.69   17.43
   1  -5   1  262.37   12.00
   1   5   2   48.54    8.73
   1  -5   2   55.90    5.13
   1   5   2   67.02    6.70
   1   5   3    2.83    3.29
  -1  -5  -3    3.41    2.90
   1   5   3    7.17    3.05
  -1  -5  -3    2.91    1.21
   1   5   3   12.62    6.56
   1  -5   3    3.86    3.14
   1   5   3    4.66    1.81
   1  -5   3    5.63    1.78
   1  -5   4   16.80    2.95
   1   5   4   24.25    5.08
   1   5   4   14.27    3.83
  -1  -5  -4   15.97    4.19
  -1  -5  -4   17.05    2.68
   1   5   4   23.83    7.98
   1  -5   4   20.83    4.86
   1   5   4   17.00    3.06
   1  -5   5  152.94    9.63
   1   5   5  152.04    9.68
   1   5   5  128.25   10.62
   1   5   5  132.52   11.23
  -1  -5  -5  133.20   10.52
   1   5   5  130.80   14.23
   1  -5   5  151.11   11.55
   1   5   5  146.92    6.96
  -1  -5  -5  127.74    8.70
   1   5   6   28.21    5.77
   1  -5   6   17.54    5.26
   1   5   6   28.01    5.80
   1   5   6   14.40    4.38
  -1  -5  -6   18.53    4.69
  -1  -5  -6   26.74    4.39
   1   5   6   16.58    8.31
   1  -5   6   22.09    6.81
   1   5   6   24.71    3.72
   1   5   6   20.52    4.30
   1  -5   7  109.95   10.39
   1   5   7  110.92    9.91
   1   5   7  109.19   10.76
  -1  -5  -7  112.37    9.84
   1   5   7   85.98    9.78
   1   5   7  105.99   13.53
   1   5   7  120.17    8.61
   1  -5   7   96.99   12.46
  -1  -5  -7  111.65    9.20
   1   5   7  111.35    9.25
   1   5   8  104.81   10.88
   1   5   8   62.96    8.15
  -1  -5  -8   72.19    8.25
   1   5   8   81.54   10.14
   1  -5   8   82.54   10.24
   1   5   8   92.62   13.75
   1   5   8   82.06    8.37
   1  -5   8   95.58   13.03
  -1  -5  -8  106.84    9.58
   1   5   8   94.69    9.17
   1   5   9  231.83   17.34
   1  -5   9  226.38   17.32
  -1  -5  -9  203.25   14.82
   1   5   9  210.29   16.38
   1   5   9  226.45   15.39
   1   5   9  196.89   19.47
   1  -5   9  226.30   19.58
   1   5   9  204.89   14.95
   1   5   9  222.44   15.40
   1   5  10  182.30   16.39
   1  -5  10  199.58   16.92
  -1  -5 -10  210.95   14.77
   1   5  10  159.75   13.74
   1   5  10  178.97   18.68
   1  -5  10  211.33   19.90
   1   5  10  192.07   15.25
   1   5  11   16.48    8.67
   1  -5  11   40.33   10.52
  -1  -5 -11   30.74    6.28
   1   5  11   34.66   12.04
   1   5  11   24.68    6.06
   1  -5  11   19.55   11.39
   1   5  11   26.69    7.95
   1   5  12    1.80    9.39
   1  -5  12   -5.52    8.96
   1   5  12   -2.11   10.12
   1   5  12    2.72    4.24
   1  -5  12   14.11   12.57
  -1   5 -12   12.25    9.28
   1   5  13   45.56   12.84
   1   5  13   42.52    7.85
   1  -5  13   25.13   14.05
   1   5  13   17.42   10.54
   1   5  14  117.50   16.80
   1   5  14  155.01   13.46
   1  -5  14  165.74   20.53
   1  -5  14  120.04   16.54
   1   5  14  117.97   16.18
   1   5  15   -4.54    9.53
   1   5  15   26.00    7.06
   1  -5  15   -5.66   12.67
   1   5  15   21.96   10.42
   1  -5  15    4.57    9.92
   1   5  16  180.33   19.90
   1   5  16  185.93   15.77
   1  -5  16  139.40   20.74
   1  -5  16  135.26   18.47
   1   5  16  122.69   17.67
   1   5  17  121.48   17.29
   1   5  17  149.52   14.29
   1  -5  17  102.40   18.97
   1   5  17  131.22   18.04
   1   5  18   77.90   14.04
   1   5  18   70.84   10.71
   1  -5  18   35.45   15.20
   1   5  18   35.49   13.55
   1   5  19    2.36    9.57
   1   5  19    1.73    5.06
   1   5  19   -7.89   11.78
   1  -5  19    6.68   13.77
   1  -5  20  -20.62   14.69
   1  -5  21   21.10   13.17
   1  -5  22    3.59   11.52
  -1  -6  21   11.03   15.18
  -1   6  21   24.70    8.15
  -1  -6  20   32.37   15.92
  -1   6  20   35.52    8.74
  -1  -6  19  153.58   24.60
  -1   6  19  190.70   17.38
  -1   6  19  210.74   23.29
  -1  -6  18  -10.15   16.04
  -1   6  18    7.14    6.53
  -1   6  18    2.75   12.13
  -1  -6  17   55.54   18.09
  -1   6  17   57.40   10.30
  -1   6  17   38.18   14.53
  -1  -6  16   78.44   18.26
  -1   6  16   89.91   11.83
  -1   6  16  118.39   18.69
  -1  -6  15   20.92   14.76
  -1   6  15   27.95    7.20
  -1   6  15   34.28   13.20
  -1  -6  14    2.84   13.29
  -1   6  14    1.59    5.40
  -1   6  14   -2.58   10.85
  -1  -6  13   85.60   17.14
  -1   6  13   81.37   10.49
  -1   6  13   55.46   14.41
  -1  -6  12   17.60   12.27
  -1   6  12   32.42    7.32
  -1   6  12   22.18    8.20
  -1   6  12   22.10   12.58
  -1   6  11   73.93    9.50
  -1   6  11   86.55   11.89
  -1   6  11   50.20   15.13
  -1  -6  11   65.39   14.90
   1   6 -11   84.57   13.81
  -1   6  10   63.84   10.10
  -1   6  10   67.38   14.35
  -1   6  10   67.81    9.23
  -1  -6  10   81.70   15.19
   1   6 -10   80.03   12.99
  -1   6  10   69.75    9.44
  -1   6   9  159.39   14.63
  -1   6   9  124.39   11.94
  -1   6   9  117.29   17.39
   1  -6  -9  162.94   13.19
  -1  -6   9  164.75   18.36
  -1   6   9  128.50   12.01
   1   6  -9  138.86   15.55
  -1   6   8   -1.51    5.54
  -1   6   8   -8.74   11.55
   1  -6  -8   -1.19    4.26
  -1   6   8    1.30    4.05
  -1  -6   8   -1.77   10.02
  -1   6   8   -3.23    4.19
  -1   6   7   63.55   14.05
   1  -6  -7   42.75    7.07
  -1   6   7   59.24    8.14
  -1  -6   7   59.27   11.57
  -1   6   7   67.61    9.45
  -1   6   6   19.62    5.08
  -1  -6   6    9.46    7.90
  -1   6   6    5.48    4.68
  -1   6   5  186.47   18.75
   1   6  -5  158.29   11.27
  -1  -6   5  139.89   13.32
  -1   6   5  179.43   14.18
  -1   6   5  155.95   12.35
  -1   6   4    4.54    3.31
  -1  -6   4   -2.76    5.69
  -1   6   4    4.37    4.42
  -1   6   4   17.26   10.36
   1   6  -4   -0.88    5.28
  -1   6   3  666.21   31.16
   1   6  -3  596.86   30.06
  -1  -6   3  628.99   28.11
  -1   6   3  651.96   28.45
   1   6  -2   78.50    9.72
   1   6  -2   79.44    4.56
  -1   6   2   69.03    7.87
  -1   6   2   59.44    6.33
   1   6  -1  423.47   24.46
   1   6  -1  428.44   17.29
   1   6  -1  499.21   23.50
  -1   6   1  450.54   23.49
  -1   6   1  432.01   19.65
   1   6   0  330.86   21.14
  -1   6   0  337.57   15.21
  -1   6   0  327.92   19.13
   1   6   0  327.20   18.41
   1   6   0  310.85   13.41
   1   6   1  262.67   19.03
  -1   6  -1  253.55   12.56
   1   6   1  268.12   16.32
   1   6   2  117.87   13.59
   1  -6   2  147.56    8.50
   1   6   2  151.64   11.65
   1   6   3   -1.62    7.48
   1   6   3    5.56    3.98
   1  -6   3    6.08    3.18
   1   6   3    8.54    3.53
   1   6   4   25.80    5.83
   1  -6   4   35.87    5.53
   1   6   4   32.27    5.74
   1   6   5  190.38   18.21
   1   6   5  227.64   15.09
   1   6   5  188.97   14.59
   1  -6   5  179.75   13.34
  -1  -6  -5  203.08   14.02
  -1  -6  -6  155.49   12.61
   1   6   6  184.53   14.38
   1   6   6  205.45   14.22
   1   6   6  167.09   17.70
   1  -6   6  186.08   13.95
   1   6   6  145.04   10.69
   1   6   7    9.80    9.29
   1   6   7    8.40    5.56
   1  -6   7    2.69    6.56
   1   6   7   -1.23    3.17
  -1  -6  -7   -1.15    3.79
   1   6   8 1061.41   51.57
   1   6   8  965.97   44.45
   1   6   8 1041.98   46.98
   1  -6   8  905.00   46.18
  -1  -6  -8 1001.53   44.42
   1   6   9    2.11   10.55
   1   6   9   25.16    7.47
   1   6   9    9.25    4.86
   1  -6   9   10.37    8.21
  -1  -6  -9   22.32    5.74
   1  -6  10   57.30   12.52
   1   6  10   72.95   10.83
   1   6  10   54.85    8.37
   1   6  10   34.98   12.56
   1  -6  11  190.53   20.25
   1   6  11  229.55   16.89
   1   6  11  175.95   20.53
   1  -6  12  131.44   17.25
   1   6  12  109.52   12.11
   1   6  12   79.00   15.17
   1  -6  13  391.37   30.18
   1   6  13  421.13   25.02
   1   6  13  379.13   29.73
   1  -6  14   -2.59   11.60
   1   6  14    3.20    4.83
   1   6  14   -7.33   11.42
   1  -6  15   10.97   10.92
   1   6  15   18.10    6.18
   1   6  15   27.31   13.14
   1  -6  16   -2.89   12.11
   1   6  16   18.65    6.61
   1   6  16   -7.58   11.98
   1  -6  17   39.22   14.18
   1   6  17   48.93    9.04
   1   6  17   25.61   12.39
   1  -6  18   15.66   12.93
   1   6  18   16.18    6.60
   1   6  18   28.30   12.05
   1  -6  19   74.59   16.38
   1   6  19   75.21   11.53
   1   6  19   64.66   14.33
   1  -6  20   10.00   13.00
   1   6  20   14.98    7.46
   1   6  20   12.89   11.19
   1  -6  21    6.82   13.03
  -1   7  20   17.85   14.12
  -1   7  19   26.80   13.53
  -1   7  19    1.94    5.65
  -1   7  18   -8.87   13.04
  -1   7  18    3.79    5.33
  -1   7  17   84.82   17.36
  -1   7  17   96.37   12.76
  -1   7  16    2.89   12.54
  -1   7  16   -1.82    5.48
  -1   7  15   28.37   13.84
  -1   7  15   28.17    7.58
  -1   7  14   33.44   14.79
  -1   7  14   39.38    8.65
  -1   7  13   -8.17   12.19
  -1   7  13    3.33    5.02
  -1   7  13   18.65    8.55
  -1   7  12  183.33   22.22
  -1   7  12  155.55   16.88
  -1   7  12  225.16   17.21
  -1   7  11  232.94   24.25
  -1   7  11  229.89   19.72
  -1   7  11  223.76   17.49
  -1   7  10  173.88   20.94
  -1   7  10  153.91   13.86
  -1   7  10  137.36   14.74
   1   7 -10  125.27   16.19
  -1   7   9    4.90   12.37
  -1   7   9   -3.50    6.54
  -1   7   9   -1.49    4.49
   1   7  -9    7.20    8.65
  -1   7   8   -3.35    5.69
  -1   7   8    1.47    4.44
  -1   7   7  108.30   17.66
  -1   7   7  110.67   12.73
  -1   7   7  114.40   11.86
  -1   7   6   22.30   12.54
  -1   7   6   10.77    6.58
  -1   7   6    4.18    4.62
  -1   7   5  129.26   17.26
  -1   7   5  124.45   12.65
  -1   7   5  120.82   11.51
  -1   7   4   62.44   15.22
  -1   7   4   44.40    7.03
   1   7  -3    1.20    7.12
  -1   7   3    4.00   10.34
  -1   7   3    1.29    4.15
   1   7  -2   10.55    7.95
  -1   7   2   32.63   11.03
   1   7  -2   26.68    5.93
  -1   7   2   33.08    6.49
   1   7  -1  466.95   28.30
  -1   7   1  506.46   31.49
   1   7  -1  542.21   26.78
  -1   7   1  490.41   26.72
   1   7   0  218.98   18.28
  -1   7   0  181.47   18.95
  -1   7   0  227.64   15.87
   1   7   0  240.23   15.70
   1   7   1   82.16   12.62
  -1   7  -1   83.96   12.97
   1   7   1   79.54    9.06
  -1   7  -1   86.80    9.74
   1   7   2  184.45   17.97
   1   7   2  159.37   13.24
   1   7   3   88.01   14.09
  -1   7  -3  129.67   13.97
   1   7   3  113.84   11.27
   1   7   3   87.95    9.59
   1   7   4  674.66   37.13
  -1   7  -4  631.67   32.67
   1   7   4  614.96   31.84
   1   7   4  589.85   31.05
   1   7   5   24.12   11.32
   1   7   5   25.29    6.43
   1   7   5   20.12    5.59
   1   7   6  234.05   21.97
   1   7   6  256.84   18.44
   1   7   6  213.78   16.37
   1   7   7   13.01   11.34
   1   7   7   13.98    6.74
  -1  -7  -7   11.48    5.27
   1   7   7    1.39    3.76
   1   7   8   38.21   12.92
   1   7   8   40.94    8.81
   1   7   8   24.24    5.76
   1   7   9   85.86   16.42
   1   7   9  132.55   13.75
   1   7   9  104.20   11.50
   1   7  10   35.88   13.74
   1   7  10   25.23    7.89
   1   7  10   31.71    7.14
   1   7  11   34.42   12.59
   1   7  11   20.24    6.24
   1   7  12  100.91   17.38
   1   7  12  122.07   12.84
   1   7  13   23.23   12.88
   1   7  13    1.66    5.02
   1   7  14   10.54   12.35
   1   7  14   34.28    8.40
   1   7  15  144.88   20.55
   1   7  15  139.81   14.85
   1   7  16   27.26   13.94
   1   7  16   14.47    6.93
   1   7  17   27.60   12.81
   1   7  17   51.87   10.22
   1   7  18   33.19   13.15
   1   7  18   28.45    8.03
   1   7  19    2.78   10.16
   1   7  19   -1.94    6.23
   1   7  20   -2.78   10.17
  -1   8  18    3.12   14.79
  -1   8  18   10.01    7.81
  -1   8  17   -6.21   14.31
  -1   8  17    3.94    5.95
  -1   8  16  -15.30   13.06
  -1   8  16    3.86    6.73
  -1   8  15  168.69   23.11
  -1   8  15  159.89   16.20
  -1   8  14   35.45   14.46
  -1   8  14   49.69   10.06
  -1   8  13  182.67   23.40
  -1   8  13  159.26   15.97
  -1   8  13  190.53   18.87
  -1   8  12   17.01   14.49
  -1   8  12   10.71    7.47
  -1   8  12   -1.75    5.79
  -1   8  11   13.83   13.85
  -1   8  11   26.87    8.75
  -1   8  11   46.37    8.85
  -1   8  10   -2.70   12.60
  -1   8  10   15.88    6.74
  -1   8  10   -1.67    4.52
  -1   8   9  173.13   22.01
  -1   8   9  185.70   16.06
  -1   8   9  188.96   17.39
  -1   8   8   -2.55   12.09
  -1   8   8    3.68    5.91
  -1   8   8   -1.63    4.58
  -1   8   7  385.99   30.33
  -1   8   7  381.17   24.60
  -1   8   7  406.93   26.03
  -1   8   6    4.80   11.53
  -1   8   6    3.41    5.65
  -1   8   6   21.89    6.80
  -1   8   5    9.28   12.00
  -1   8   5    6.60    6.44
  -1   8   5    3.03    4.41
  -1   8   4   20.15   12.37
  -1   8   4   28.18    6.70
  -1   8   3   34.52   12.97
  -1   8   3   36.64    7.31
   1   8  -3   27.81    7.01
  -1   8   2    4.14   10.95
   1   8  -2   -1.50    9.37
   1   8  -2   11.94    5.67
  -1   8   2   11.63    5.44
  -1   8   1  156.50   18.39
   1   8  -1  158.81   16.31
   1   8  -1  152.35   13.35
  -1   8   1  146.60   13.47
   1   8   0   65.92   13.15
  -1   8   0   75.46   14.02
   1   8   0   68.62    9.19
  -1   8   0   80.29   10.13
  -1   8  -1  484.08   30.40
   1   8   1  459.19   30.16
  -1   8  -1  485.76   27.33
   1   8   1  483.56   26.84
   1   8   2   32.91   12.67
  -1   8  -2   36.95   11.90
  -1   8  -2   24.31    6.39
   1   8   2   35.92    7.61
   1   8   3   28.41   12.77
   1   8   3   24.48    7.05
   1   8   3   19.72    5.76
   1   8   4  491.59   32.40
   1   8   4  464.81   27.47
   1   8   4  505.03   27.74
   1   8   5   63.97   14.77
   1   8   5   76.69   10.53
   1   8   5   58.97    9.27
   1   8   6    2.29   11.15
   1   8   6    3.27    5.83
   1   8   6    1.53    4.63
   1   8   7  212.87   22.16
   1   8   7  245.49   17.90
   1   8   7  215.22   18.32
   1   8   8   56.22   13.56
   1   8   8   32.18    8.49
   1   8   8   48.68    8.35
   1   8   9  115.74   18.55
   1   8   9  101.05   13.23
   1   8   9  103.27   12.09
   1   8  10   12.91   11.24
   1   8  10   29.24    8.22
   1   8  10   23.10    7.09
   1   8  11    2.64   12.39
   1   8  11   28.70    7.82
   1   8  11   24.32    8.54
   1   8  12   -2.70   12.29
   1   8  12   -3.48    6.21
   1   8  13   46.89   15.17
   1   8  13   58.78    9.81
   1   8  14   16.85   11.60
   1   8  14   16.50    7.02
   1   8  15   34.23   14.32
   1   8  15   50.71    9.95
   1   8  16   46.24   14.99
   1   8  16   32.65    8.82
   1   8  17  -14.60   14.03
   1   8  17   -3.92    6.12
   1   8  18    5.87   10.74
  -1   9  16    3.20   13.65
  -1   9  16   20.35    8.56
  -1   9  15    3.15   14.32
  -1   9  15   11.96    7.46
  -1   9  14   71.26   17.56
  -1   9  14   62.39   10.55
  -1   9  13   57.75   17.45
  -1   9  13   93.98   12.70
  -1   9  13   68.26   12.72
  -1   9  12  264.94   28.07
  -1   9  12  308.50   24.67
  -1   9  12  294.95   22.45
  -1   9  11  122.20   19.70
  -1   9  11  121.77   15.46
  -1   9  11   83.32   11.82
  -1   9  10   73.86   16.06
  -1   9  10   87.62   13.31
  -1   9  10   78.50   11.01
  -1   9   9   36.03   14.39
  -1   9   9   37.17    9.61
  -1   9   9   37.69    8.38
  -1   9   8  528.46   36.67
  -1   9   8  505.30   31.68
  -1   9   8  499.32   30.28
  -1   9   7   13.10   12.75
  -1   9   7    3.86    6.22
  -1   9   7   14.44    6.60
  -1   9   6   33.06   12.78
  -1   9   6   44.89    9.57
  -1   9   6   48.53    8.89
  -1   9   5  135.43   18.49
  -1   9   5  143.59   14.20
  -1   9   5  105.14   13.61
   1   9  -5  148.13   13.50
  -1   9   4   47.67   13.78
  -1   9   4   58.01    9.85
   1   9  -4   54.56    8.88
  -1   9   3   13.80   11.48
   1   9  -3    5.91    4.76
  -1   9   3   13.07    6.74
  -1   9   2   28.75   11.16
   1   9  -2   63.89    9.41
  -1   9   2   45.39    8.73
  -1   9   1   25.46   11.94
   1   9  -1   16.49    6.21
  -1   9   1   17.69    6.54
  -1   9   0  137.75   17.11
   1   9   0  169.04   17.32
   1   9   0  166.52   14.63
  -1   9   0  121.46   13.23
   1   9   1   86.44   14.01
   1   9   1   56.61    8.95
  -1   9  -1   58.91    9.54
   1   9   2   69.62   13.64
  -1   9  -2   82.85   10.75
   1   9   2   80.66   10.55
   1   9   3  348.27   27.39
   1   9   3  376.45   23.74
   1   9   3  360.53   23.40
  -1   9  -3  358.89   23.44
   1   9   4   11.48   10.73
   1   9   4    1.65    5.31
   1   9   4   -3.24    5.06
   1   9   5  357.00   28.65
   1   9   5  386.77   25.51
   1   9   5  423.66   25.76
   1   9   6  172.42   20.13
   1   9   6  147.81   14.72
   1   9   6  151.84   15.63
   1   9   7   -7.60   13.25
   1   9   7    1.86    5.97
   1   9   7    3.43    4.62
   1   9   8  -13.06   13.95
   1   9   8    5.81    6.58
   1   9   8   -1.73    5.05
   1   9   9  160.60   21.26
   1   9   9  151.20   16.62
   1   9   9  187.82   16.44
   1   9  10  -10.99   13.38
   1   9  10    1.80    5.05
   1   9  10    2.09    7.10
   1   9  11  103.76   18.68
   1   9  11  103.90   14.23
   1   9  11  118.61   13.66
   1   9  12   25.72   14.00
   1   9  12   56.07   10.01
   1   9  13    5.82   12.21
   1   9  13    3.81    5.93
   1   9  14   47.23   14.09
   1   9  14   46.72    9.50
   1   9  15   -3.01   11.71
   1   9  15    1.99    6.76
   1   9  16    6.04   12.47
   1   9  16    8.11    7.07
  -1  10  14   12.75   13.84
  -1  10  13    3.13   13.60
  -1  10  13    2.03    5.93
  -1  10  13   -4.96    7.97
  -1  10  12   -6.16   13.15
  -1  10  12   -2.42    8.22
  -1  10  12    2.02    6.09
  -1  10  11   24.13   13.51
  -1  10  11    2.35    7.11
  -1  10  11    3.97    6.75
  -1  10  10    8.86   12.20
  -1  10  10   25.11    9.10
  -1  10  10   25.61    8.01
  -1  10   9   37.58   10.11
  -1  10   9   40.88    9.05
  -1  10   8    2.81   12.94
  -1  10   8    2.15    6.69
  -1  10   8    1.95    6.62
  -1  10   7   21.91   14.24
  -1  10   7   50.02   10.76
  -1  10   7   46.81    9.73
  -1  10   6  103.76   17.98
  -1  10   6  137.36   15.53
  -1  10   6  120.30   14.45
  -1  10   5   38.77   13.91
  -1  10   5   47.18   10.29
  -1  10   5   50.27    9.43
   1  10  -5   44.88    8.98
  -1  10   4    7.51   11.38
  -1  10   4    1.91    6.15
  -1  10   4   -1.83    5.35
   1  10  -4   -1.61    4.70
  -1  10   3  186.23   21.37
   1  10  -3  177.24   16.23
  -1  10   3  238.49   19.06
  -1  10   2   58.29   14.39
   1  10  -2   50.80    8.89
  -1  10   2   32.17    8.14
  -1  10   1   17.80    7.53
   1  10  -1   39.81    8.63
  -1  10   0    1.76    5.66
   1  10   0   -1.67    4.87
   1  10   1  128.55   14.23
  -1  10  -1  138.04   14.52
   1  10   2   -4.50   10.53
  -1  10  -2    3.49    5.77
   1  10   2   13.77    6.84
   1  10   3  152.52   19.58
   1  10   3  167.71   15.97
  -1  10  -3  142.05   14.71
   1  10   4   -7.31   12.59
   1  10   4    5.38    5.76
  -1  10  -4    1.73    4.85
   1  10   5   42.85   12.94
  -1  10  -5   44.69    8.67
   1  10   5   26.11    8.06
   1  10   6   96.23   17.37
   1  10   6  139.59   14.69
   1  10   7   66.96   15.69
   1  10   7   75.93   12.03
   1  10   7   72.34   11.02
   1  10   8   87.68   16.89
   1  10   8   64.27   11.73
   1  10   8   82.67   11.56
   1  10   9    2.81   12.78
   1  10   9    8.61    6.92
   1  10   9    1.90    5.73
   1  10  10    8.60   12.24
   1  10  10   -2.22    7.34
   1  10  10    1.93    5.83
   1  10  11   38.09   14.34
   1  10  11   58.54   10.43
   1  10  11   32.09   10.06
   1  10  12   -2.98   12.07
   1  10  12   13.91    6.93
   1  10  13    6.04   12.02
   1  10  13   24.29    7.43
  -1  11  12   12.67    9.06
  -1  11  11   12.32   13.80
  -1  11  11    9.90    8.63
  -1  11  10   96.71   19.08
  -1  11  10   69.88   13.48
  -1  11  10   94.26   13.09
  -1  11   9   76.73   17.77
  -1  11   9   93.60   14.55
  -1  11   9   83.64   13.07
  -1  11   8   31.75   12.97
  -1  11   8   20.47    8.93
  -1  11   8   47.88   10.20
  -1  11   7  301.01   28.86
  -1  11   7  338.74   26.03
  -1  11   7  352.59   25.58
  -1  11   6   93.33   17.12
  -1  11   6   52.03   10.62
  -1  11   5  165.30   21.97
  -1  11   5  235.84   20.12
  -1  11   4   -3.98    6.76
  -1  11   3   -5.90    6.51
   1  11  -2    1.77    5.53
  -1  11   2    3.87    6.23
  -1  11   1  292.57   22.97
   1  11  -1  342.22   23.57
  -1  11   0   -3.83    5.38
   1  11   0   -1.82    5.49
  -1  11  -1   -1.89    7.07
   1  11   1   -7.36    6.57
   1  11   2   69.46   11.07
  -1  11  -2  110.88   13.20
  -1  11  -3    1.87    5.82
   1  11   3   11.47    6.50
   1  11   4    1.95    5.90
  -1  11  -4   -1.85    5.58
   1  11   5    2.61   13.53
   1  11   5   23.98    7.50
  -1  11  -5   23.90    6.76
   1  11   6   -8.07   12.76
   1  11   6   -5.98    7.12
  -1  11  -6    1.83    5.52
   1  11   7  -13.83   13.63
   1  11   7   10.02    7.16
   1  11   8   -5.65   12.64
   1  11   8    4.02    6.46
   1  11   9   -2.89   14.24
   1  11   9   10.17    7.09
   1  11  10   14.69   12.97
   1  11  10   20.62    8.06
   1  11  11    5.99   14.20
   1  11  11    4.14    5.60
  -1  12   8   20.34   14.52
  -1  12   7    2.85   12.94
  -1  12   6   26.63    8.70
  -1  12   5   -2.18    6.13
  -1  12   4   66.33   11.66
  -1  12   3   92.76   13.44
  -1  12   2   37.49    9.56
  -1  12   1   14.34    7.16
  -1  12   0   -2.03    6.53
  -1  12  -1   42.34   10.04
   1  12   1   39.39    9.69
  -1  12  -2   57.90   10.94
   1  12   2   50.18   10.43
   1  12   3   65.97   11.37
  -1  12  -3   65.28   11.25
   1  12   4   42.50   10.05
   1  12   5    8.45    7.55
   1  12   6   27.45    8.76
   1  12   7   22.28   12.35
   1  12   7   48.75   10.27
   1  12   8   -2.85   14.22
  -2   0  24   84.13   23.26
  -2   0  24   36.34   18.45
  -2   0  23    8.26   16.41
  -2   0  23    3.99   16.73
  -2   0  22  105.21   23.19
  -2   0  22   82.27   22.47
  -2   0  21    3.93   17.34
  -2   0  21   -7.68   14.34
  -2   0  20   83.96   21.94
  -2   0  20  123.67   24.17
  -2   0  19   -7.34   14.02
  -2   0  19  -10.95   15.84
  -2   0  18   31.74   16.78
  -2   0  18   56.76   19.41
   2   0 -17    1.13    3.85
  -2   0  17    3.36   13.86
   2   0 -16  136.19   11.52
   2   0 -16  132.79   13.25
  -2   0  16  156.38   23.82
   2   0 -15    1.30    4.95
   2   0 -15    2.02    3.93
   2   0 -15   -1.72    6.57
  -2   0  15    6.90   10.30
  -2   0  15   12.01   15.34
   2   0 -14  374.54   24.59
  -2   0  14  412.13   28.85
   2   0 -14  394.49   20.93
   2   0 -14  365.53   22.21
  -2   0  13   -3.18    6.56
   2   0 -13   -3.08    6.36
  -2   0  13   -1.99    7.27
   2   0 -13   -3.42    4.61
   2   0 -13    2.63    3.62
  -2   0  12   32.48    7.51
  -2   0  12   40.29    9.43
   2   0 -12   25.98    7.12
   2   0 -12   42.22    6.84
   2   0 -12   31.49    4.93
  -2   0  11    4.85    5.35
  -2   0  11   -1.68    6.00
   2   0 -11    2.68    4.56
   2   0 -11    1.94    3.86
   2   0 -11   -2.22    3.00
  -2   0  10    4.66    4.87
   2   0 -10    4.68    2.95
   2   0 -10    4.41    3.77
   2   0 -10    1.23    4.72
  -2   0  10    1.52    5.17
   2   0  -9    2.38    3.33
   2   0  -9    1.80    2.33
   2   0  -9   -1.12    3.81
  -2   0   9    4.09    4.99
   2   0  -8 4219.82  155.59
   2   0  -8 4304.38  154.00
  -2   0   8 4243.99  159.69
   2   0  -8 4300.31  158.21
  -2   0   7   -0.45    1.48
   2   0  -7   -0.61    2.57
   2   0  -7   -0.45    1.66
  -2   0   7   -1.05    3.76
   2   0  -7   -2.67    3.66
  -2   0   6   62.63    4.64
   2   0  -6   54.01    5.23
   2   0  -6   72.23    4.98
   2   0  -6   48.37    6.65
   2   0  -6   64.34    6.63
  -2   0   6   71.81    7.49
  -2   0   5    0.62    1.42
   2   0  -5   -0.62    1.72
   2   0  -5    1.71    2.72
   2   0  -5   -0.64    3.39
   2   0  -5    6.00    4.22
  -2   0   5    4.44    3.65
   2   0  -4 2382.23   88.26
   2   0  -4 2456.85   87.45
  -2   0   4 2461.50   88.46
  -2   0   4 2425.11   87.48
   2   0  -4 2425.96   90.50
  -2   0   4 2511.80   90.56
   2   0  -4 2442.23   89.87
   2   0  -3   -1.67    1.98
   2   0  -3   -0.90    1.68
   2   0  -3    0.85    0.88
  -2   0   3    0.77    1.22
   2   0  -3   -0.25    1.27
  -2   0   3   -0.17    0.71
  -2   0   3    3.03    1.69
  -2   0   3    0.50    1.82
  -2   0   2    5.20    1.77
   2   0  -2    6.59    1.68
  -2   0   2    9.35    1.95
   2   0  -2    6.13    1.41
   2   0  -2    4.91    1.57
  -2   0   2    2.70    1.22
   2   0  -1   -0.23    0.68
  -2   0   1    0.25    0.64
   2   0  -1    0.58    0.55
  -2   0   1    0.43    0.44
  -2   0   0  724.06   27.51
   2   0   0  767.17   27.63
   2   0   0  712.56   28.21
  -2   0   0  750.67   28.14
  -2   0  -1    3.09    1.01
   2   0   1    0.47    0.61
  -2   0  -1    0.25    0.66
   2   0   1    0.74    0.72
  -2   0  -2   59.98    3.89
   2   0   2   64.19    3.91
   2   0   2   65.52    4.48
  -2   0  -2   68.88    4.77
  -2   0  -2   57.01    4.37
   2   0   2   58.96    4.30
  -2   0  -3   -0.32    1.81
   2   0   3   -0.50    2.32
  -2   0  -3    0.56    3.58
   2   0   3    0.89    1.39
   2   0   3    0.97    2.14
  -2   0  -3    2.15    3.13
   2   0   4  566.59   22.52
  -2   0  -4  538.85   22.71
   2   0   4  563.67   24.97
  -2   0  -4  527.07   25.86
  -2   0  -4  547.87   25.70
   2   0   4  553.41   24.81
  -2   0  -5    0.49    3.25
   2   0   5   -1.66    4.57
  -2   0  -5    1.93    6.34
  -2   0  -5   -0.98    6.24
   2   0   5   -1.74    4.18
   2   0   5   -1.26    2.05
   2   0   6 1341.89   56.26
  -2   0  -6 1390.84   52.39
  -2   0  -6 1430.92   53.34
   2   0   6 1322.78   52.14
  -2   0  -6 1341.40   57.83
   2   0   6 1397.53   57.02
  -2   0  -6 1376.97   55.36
  -2   0  -7    2.32    2.22
   2   0   7   -1.18    4.49
  -2   0  -7    1.38    3.81
   2   0   7    1.10    2.40
   2   0   7    1.24    5.19
  -2   0  -7   12.43    7.06
  -2   0  -7   -0.99    4.43
   2   0   8  548.82   29.18
  -2   0  -8  559.97   24.40
   2   0   8  519.94   24.00
  -2   0  -8  524.08   25.34
   2   0   8  597.47   30.28
  -2   0  -8  526.87   27.36
  -2   0  -9   -0.73    2.47
   2   0   9   -1.52    6.26
   2   0   9    2.71    3.08
  -2   0  -9    6.23    5.19
   2   0   9   -7.95    7.23
  -2   0  -9   -1.24    5.11
   2   0  10  262.64   20.19
  -2   0 -10  247.06   14.60
   2   0  10  247.62   14.37
  -2   0 -10  254.18   16.51
   2   0  10  285.43   20.81
  -2   0 -10  248.94   18.09
  -2   0 -11   -0.87    3.32
   2   0  11   -1.84    7.47
   2   0  11    1.59    3.33
  -2   0 -11    3.35    6.34
   2   0  11   -3.86    8.65
  -2   0 -11   -4.43    6.30
  -2   0 -12  153.90   11.46
   2   0  12  165.32   11.67
  -2   0 -12  127.07   14.11
   2   0  12  148.85   17.65
   2   0  12  112.10   15.58
   2   0  13  -12.92    9.78
   2   0  13   -2.67    4.16
   2   0  13    2.25    9.45
  -2   0 -13   -1.69    7.23
  -2   0 -13   -2.02    3.69
   2   0  14 1298.17   63.91
  -2   0 -14 1329.74   54.95
   2   0  14 1279.43   64.45
  -2   0 -14 1296.58   60.11
   2   0  15   -9.76   11.40
   2   0  15  -12.77   12.90
  -2   0 -15    1.89    8.45
  -2   0 -15   -1.15    4.64
   2   0  16  629.31   41.99
   2   0  16  661.60   41.54
   2   0  17   17.01   12.88
   2   0  17   -8.11   10.95
   2   0  18    5.92   11.99
   2   0  18   -2.83   10.81
   2   0  19  -12.35   13.40
   2   0  19   -8.84   12.99
   2   0  20    6.40   14.10
   2   0  20   12.23   13.69
   2   0  21   -6.60   13.84
   2   0  21   -3.16   12.56
   2   0  22   23.71   15.16
   2   0  22   -6.50   12.67
   2   0  23   20.75   13.48
   2   0  23  -10.00   13.74
  -2   1  24   -8.21   18.93
  -2  -1  24    8.53   16.29
  -2  -1  23   12.57   15.67
  -2   1  23  -12.09   17.20
  -2   1  23    7.93   15.14
  -2  -1  23   23.75   17.18
  -2  -1  22  -12.29   15.96
  -2   1  22   -3.95   16.00
  -2   1  22   11.70   16.08
  -2  -1  22   -7.78   15.47
  -2   1  21    3.84   16.39
  -2  -1  21   44.01   19.98
  -2   1  21   38.17   17.36
  -2  -1  21    7.63   16.29
  -2   1  20   66.98   20.08
  -2  -1  20  116.14   23.73
  -2  -1  20   78.26   21.72
  -2   1  20   67.02   20.50
  -2   1  19   82.24   19.93
  -2  -1  19  116.04   23.71
  -2  -1  19   61.70   20.02
  -2   1  19   90.58   20.77
  -2   1  18   34.34   16.72
  -2  -1  18   -3.59   15.08
  -2  -1  18   10.58   15.07
  -2   1  18   10.56   14.26
   2   1 -17   -1.39    5.32
  -2   1  17   -6.54   14.85
  -2  -1  17   17.19   16.30
  -2   1  17   -2.55   10.14
   2   1 -16   32.96    6.50
   2  -1 -16   27.19    7.87
   2   1 -16   18.48    6.66
  -2   1  16   49.62   17.46
  -2  -1  16   26.09   16.70
  -2   1  16   12.00   10.29
   2  -1 -16   38.41    6.89
   2  -1 -15  316.02   20.64
   2   1 -15  323.33   20.13
   2  -1 -15  315.80   18.81
   2   1 -15  308.19   18.21
  -2  -1  15  302.08   30.33
  -2   1  15  303.32   29.54
   2  -1 -15  363.72   25.93
   2   1 -15  299.05   22.83
  -2   1  15  318.79   25.73
   2  -1 -15  332.29   22.64
   2  -1 -14    1.00    3.31
   2   1 -14    1.81    3.52
   2  -1 -14   -2.56    5.98
   2   1 -14   -1.16    4.71
   2   1 -14    3.47    5.90
  -2  -1  14   -2.89   13.69
  -2   1  14    4.18    9.22
   2  -1 -14   -3.07    6.21
   2  -1 -14   -1.94    7.42
  -2   1  14   -9.76    8.06
   2   1 -13   93.26    8.63
   2  -1 -13   88.20    8.67
   2  -1 -13  110.47   10.78
   2   1 -13   95.17   10.08
   2  -1 -13   84.99   10.98
  -2   1  13  139.59   15.65
   2  -1 -13  113.19   13.87
   2   1 -13  105.36   12.53
  -2   1  13  108.17   12.68
   2  -1 -12   79.53    9.25
  -2   1  12   79.83    7.76
   2  -1 -12   75.91    7.86
   2   1 -12   97.88    8.16
   2   1 -12   94.48   11.76
  -2   1  12   92.71   12.39
  -2  -1  12   79.77   12.55
   2  -1 -12   87.34   10.36
   2  -1 -12   86.87   12.44
  -2  -1  12   75.87    7.86
  -2   1  12   87.65   11.04
  -2   1  11   66.42    6.82
   2  -1 -11   49.77    7.24
   2  -1 -11   65.15    6.73
   2   1 -11   68.56    6.92
  -2  -1  11   52.21   10.39
   2  -1 -11   65.81    8.77
  -2   1  11   60.16   10.60
   2  -1 -11   63.03   10.07
  -2  -1  11   50.50    6.81
  -2   1  11   64.72   10.32
   2   1 -10  730.97   28.68
  -2   1  10  611.39   28.61
   2  -1 -10  657.34   30.39
   2  -1 -10  628.50   28.62
   2   1 -10  717.92   34.55
   2  -1 -10  605.52   31.13
  -2   1  10  671.25   34.44
  -2  -1  10  704.68   36.15
   2  -1 -10  647.16   34.00
  -2  -1  10  619.66   27.98
   2  -1  -9   10.69    3.23
  -2  -1   9    6.88    4.04
   2  -1  -9    5.20    3.60
  -2   1   9    6.85    3.09
  -2  -1   9   14.28    6.87
   2  -1  -9    8.22    4.18
   2  -1  -9   19.64    6.47
  -2   1   9    1.31    5.02
   2  -1  -8  125.08    8.07
   2   1  -8   98.99    6.86
   2  -1  -8  110.18    8.83
  -2   1   8   96.20    7.42
  -2   1   8   86.22    9.51
  -2  -1   8   90.28   10.14
   2  -1  -8  106.25    9.32
   2  -1  -8  122.91   11.25
   2   1  -8  116.68   10.50
   2  -1  -7  115.38    9.09
  -2   1   7   18.47    5.06
   2  -1  -7   86.19    9.19
   2  -1  -6 1123.47   43.00
   2  -1  -6 1104.08   44.02
  -2   1   6 1105.22   42.97
  -2   1   6 1094.10   44.21
  -2  -1   6 1090.59   46.72
   2  -1  -6 1152.85   46.62
  -2   1   6 1145.10   46.07
   2   1  -6 1067.88   45.82
  -2   1   5  211.18   11.59
  -2   1   5  208.18   10.43
   2  -1  -5  210.91   10.61
   2  -1  -5  197.75   12.42
   2   1  -5  201.61   12.53
  -2  -1   5  217.68   13.28
  -2   1   5  215.24   12.30
  -2   1   4 4287.75  152.92
  -2   1   4 4365.14  153.97
   2  -1  -4 4291.08  152.87
  -2  -1   4 4308.90  155.64
  -2   1   4 4132.68  155.58
  -2   1   4 4412.82  154.60
   2   1  -4 4085.28  154.85
   2  -1  -4 4326.27  154.96
   2   1  -4 4302.35  155.17
   2  -1  -3 1949.46   72.06
   2   1  -3 1946.59   72.14
   2  -1  -3 1953.08   69.88
  -2   1   3 1917.99   69.90
  -2   1   3 1917.59   71.66
   2   1  -3 1936.22   71.43
   2   1  -3 1890.52   71.12
   2  -1  -3 1872.72   71.07
  -2  -1   3 1928.03   71.79
  -2   1   2  161.37    7.86
   2  -1  -2  172.86    7.98
   2   1  -2  164.00    8.64
   2  -1  -2  165.68    8.33
  -2  -1   2  167.54    8.85
  -2   1   2  174.46    8.98
   2  -1  -2  182.72    8.80
  -2  -1   2  179.64    8.79
  -2  -1   2  159.21    8.33
   2   1  -2  169.03    8.21
  -2   1   2  166.95    8.59
   2   1  -2  174.95    8.53
  -2   1   2  168.35    8.94
  -2  -1   2  166.42    8.89
   2   1  -2  156.40    8.49
   2  -1  -2  165.06    8.53
   2   1  -1  970.73   35.49
  -2  -1   1  979.64   35.61
   2   1  -1  943.16   35.20
  -2   1   1 1004.06   36.22
   2  -1  -1 1007.95   36.02
  -2   1   1  920.71   36.43
   2  -1  -1  958.58   35.79
  -2   1   1  993.30   36.10
  -2  -1   1  978.95   36.08
   2   1  -1  964.90   35.80
   2   1  -1  937.51   35.46
  -2  -1   1  973.31   35.45
  -2  -1   1  977.00   35.77
   2  -1   0  688.87   25.64
  -2   1   0  672.45   25.30
  -2  -1   0  634.38   25.20
  -2  -1   0  647.68   25.30
   2   1   0  623.94   25.12
   2   1   0  644.89   24.25
  -2  -1   0  692.16   24.41
  -2   1   0  668.10   24.78
  -2  -1   0  667.46   24.78
   2   1   1   65.27    3.75
  -2  -1  -1   63.34    3.74
   2  -1   1   68.95    4.33
   2   1   1   62.46    3.86
  -2  -1  -1   64.15    3.78
  -2   1  -1   74.73    4.55
   2  -1   1   67.83    4.04
   2   1   1   68.31    4.03
  -2   1  -1   66.90    4.02
  -2  -1  -1   68.33    4.08
   2   1   1   59.52    4.31
  -2  -1  -1   73.37    4.77
  -2  -1  -2  152.17    7.59
   2   1   2  149.67    7.58
   2   1   2  172.35    8.66
  -2  -1  -2  151.72    8.66
  -2  -1  -2  162.09    8.01
   2   1   2  159.53    7.76
  -2   1  -2  146.96    8.66
   2  -1   2  170.02    8.69
  -2  -1  -2  161.70    8.33
  -2   1  -2  166.72    8.41
   2  -1   2  144.34    7.82
   2   1   2  154.59    7.97
   2   1   3   18.95    2.55
  -2  -1  -3    9.97    2.45
   2  -1   3   15.69    3.14
  -2  -1  -3   10.93    4.11
   2   1   3   12.89    3.06
  -2   1  -3   10.34    4.33
  -2  -1  -3   17.02    4.21
   2   1   3   25.18    3.60
  -2  -1  -3    5.54    3.98
   2   1   3   17.41    3.23
  -2   1  -3   12.80    4.91
   2  -1   3    8.49    3.39
  -2  -1  -3   14.17    2.98
   2  -1   4   84.60    7.52
  -2   1  -4   98.38    9.04
  -2  -1  -4  103.60    9.59
   2   1   4   78.57    7.48
   2   1   4   86.41    5.96
  -2  -1  -4   91.06    6.11
   2   1   4   96.05    7.37
  -2   1  -4   87.21    5.30
  -2  -1  -4   92.37    7.93
   2   1   4   90.79    7.50
  -2  -1  -4   85.78    8.93
  -2   1  -4   92.82    9.84
   2  -1   4  116.48    8.92
  -2  -1  -4   96.41    7.22
   2   1   5    2.44    1.70
  -2  -1  -5    0.49    1.82
  -2   1  -5    1.93    1.96
  -2  -1  -5   13.67    6.89
   2   1   5   -0.82    3.69
   2  -1   5    0.82    3.61
  -2   1  -5    5.88    5.77
  -2  -1  -5   -0.71    4.56
   2   1   5    3.17    2.88
  -2  -1  -5    3.69    5.29
  -2   1  -5    6.37    6.08
   2  -1   5   -1.86    4.93
   2   1   5   -0.79    4.12
  -2  -1  -5    0.63    3.17
  -2  -1  -6   39.19    4.34
   2   1   6   40.20    4.29
   2  -1   6   44.07    3.59
   2  -1   6   45.70    6.73
   2   1   6   43.89    6.71
  -2   1  -6   37.82    3.99
  -2  -1  -6   41.18    6.49
   2   1   6   41.88    5.45
  -2  -1  -6   44.87    8.05
  -2   1  -6   35.40    8.77
   2   1   6   48.50    6.96
   2  -1   6   40.18    7.22
  -2  -1  -6   43.65    5.94
   2   1   7   38.33    4.52
  -2  -1  -7   38.54    4.75
   2  -1   7   40.06    3.73
   2   1   7   33.98    7.02
   2  -1   7   33.84    6.69
   2   1   7   34.61    5.15
  -2   1  -7   32.92    4.38
  -2  -1  -7   60.90    7.93
   2  -1   7   36.45    7.50
  -2   1  -7   30.57    8.44
   2   1   7   28.82    6.36
  -2  -1  -7   49.70    9.04
  -2  -1  -7   42.94    6.30
  -2  -1  -8    5.62    2.75
   2  -1   8    9.70    2.47
   2   1   8   10.75    6.29
   2  -1   8    5.36    5.43
   2   1   8    6.82    3.71
  -2   1  -8    1.76    3.40
  -2  -1  -8    5.07    5.48
   2  -1   8    1.48    5.90
   2   1   8    5.33    5.19
  -2  -1  -8   -1.02    4.36
  -2   1  -8    7.33    5.04
   2   1   9  358.25   23.70
   2  -1   9  427.53   24.94
   2   1   9  416.06   21.14
   2  -1   9  404.89   17.73
  -2  -1  -9  401.76   19.83
  -2  -1  -9  381.24   22.36
  -2   1  -9  398.05   19.53
   2   1   9  425.44   25.03
   2  -1   9  348.43   24.37
  -2   1  -9  384.74   23.34
  -2  -1  -9  379.54   22.09
   2   1  10  657.82   34.90
   2  -1  10  605.19   34.13
   2   1  10  675.42   30.38
   2  -1  10  615.61   26.43
  -2  -1 -10  647.56   29.03
  -2   1 -10  640.23   28.72
  -2  -1 -10  606.73   31.76
   2   1  10  691.74   35.56
   2  -1  10  555.05   34.66
  -2   1 -10  598.29   32.85
  -2  -1 -10  637.86   31.89
   2   1  11 1209.70   57.82
   2  -1  11 1237.24   58.34
   2  -1  11 1268.85   48.73
   2   1  11 1286.35   52.52
  -2  -1 -11 1317.12   51.68
  -2   1 -11 1202.08   50.39
  -2   1 -11 1252.29   51.36
   2  -1  11 1223.07   59.15
   2   1  11 1266.37   58.46
  -2   1 -11 1176.32   55.93
  -2  -1 -11 1201.07   54.49
   2  -1  12  267.36   22.87
   2   1  12  296.61   23.40
  -2  -1 -12  316.13   18.01
  -2   1 -12  321.30   17.46
   2  -1  12  307.91   25.19
   2   1  12  243.23   22.13
  -2  -1 -12  318.75   21.04
  -2   1 -12  303.91   22.04
   2   1  12  339.10   19.23
   2  -1  12  288.84   15.36
   2   1  13  259.14   22.26
   2  -1  13  265.99   22.84
   2   1  13  249.49   16.71
  -2   1 -13  239.57   15.35
  -2  -1 -13  249.70   16.19
   2  -1  13  237.76   23.01
   2   1  13  259.66   23.14
  -2   1 -13  247.84   20.50
  -2  -1 -13  276.15   19.99
   2   1  14  159.71   13.79
  -2  -1 -14  163.74   14.57
  -2  -1 -14  157.88   12.77
  -2   1 -14  158.05   12.25
   2   1  14  164.69   19.02
   2  -1  14  162.77   19.31
   2   1  14  155.39   19.26
   2  -1  14  171.83   20.57
  -2  -1 -14  155.63   15.56
  -2   1 -14  157.73   16.90
   2   1  15  120.95   11.80
  -2   1 -15  125.70   11.03
  -2  -1 -15  112.54   11.19
   2  -1  15  110.71   18.94
   2   1  15  100.94   17.96
  -2  -1 -15  112.72   14.33
   2  -1  15  146.04   19.87
   2   1  15  106.79   17.92
   2  -1  16   -8.35   12.08
   2   1  16  -18.24   13.93
   2   1  16   15.38   11.82
   2  -1  16   -5.14   11.51
   2  -1  17   -5.83   11.14
   2   1  17   -2.74   11.68
   2  -1  17   -2.70   10.94
   2   1  17   -5.38   11.49
   2  -1  18  264.81   27.63
   2   1  18  268.91   26.92
   2  -1  18  344.46   29.38
   2   1  18  244.71   25.42
   2  -1  19   -2.94   11.24
   2   1  19  -11.72   12.51
   2  -1  19    3.16   12.57
   2   1  19   -2.98   13.92
   2   1  20   -3.04   13.19
   2  -1  20    3.05   12.13
   2   1  20   -9.26   12.73
   2  -1  20   13.12   13.52
   2   1  21   -3.14   12.73
   2  -1  21   18.92   13.01
   2   1  21   19.14   14.29
   2  -1  21    3.38   13.44
   2  -1  22   45.41   15.22
   2   1  22   29.10   14.09
   2   1  22   29.48   14.72
   2  -1  22   48.55   17.14
   2   1  23   -6.63   14.61
   2  -1  23   -6.64   12.68
   2  -1  23  -10.62   13.80
   2   1  23    6.70   11.67
   2   1  24  -10.22   13.80
  -2   2  24    3.94   17.10
  -2   2  23   69.98   20.23
  -2  -2  23   89.43   21.12
  -2  -2  23   58.88   20.86
  -2   2  23   50.50   19.29
  -2  -2  22   19.14   16.61
  -2   2  22  -19.10   17.36
  -2  -2  22   -8.27   18.52
  -2   2  22    3.80   16.48
  -2  -2  21   60.01   19.62
  -2   2  21   -3.74   16.50
  -2   2  21   44.44   17.09
  -2  -2  21   -4.03   15.39
  -2  -2  20  157.59   25.65
  -2   2  20  208.05   27.09
  -2  -2  20  160.22   27.08
  -2   2  20  179.02   26.74
  -2   2  19   -2.79    9.50
  -2   2  19   10.65   15.15
  -2  -2  19   -7.14   15.49
  -2  -2  19   -7.57   16.43
  -2   2  19  -10.37   15.23
  -2   2  18  275.53   25.06
  -2  -2  18  166.53   24.98
  -2   2  18  203.21   26.23
  -2   2  18  224.85   27.30
  -2  -2  18  258.20   29.81
  -2   2  17   -5.01   10.34
  -2   2  17    3.16   12.30
  -2  -2  17    6.98   13.87
  -2   2  17   13.33   15.59
  -2   2  16  145.60   16.81
  -2   2  16  197.66   24.79
  -2  -2  16  129.54   23.58
  -2   2  16  134.17   17.39
   2  -2 -15   32.85    7.70
  -2   2  15   27.07    6.10
   2   2 -15   30.70    5.80
  -2   2  15   30.95   10.77
   2  -2 -15   26.46    6.66
  -2   2  15   11.25   14.57
  -2  -2  15   50.30   18.52
  -2   2  15   26.46   10.78
   2  -2 -14   36.56    7.72
   2   2 -14   47.68    6.40
  -2   2  14   41.26    6.63
  -2   2  14   31.84   10.69
   2  -2 -14   35.90    6.48
  -2  -2  14   32.58   16.53
  -2   2  14   14.36    9.00
   2  -2 -14   41.86   10.25
   2   2 -14   38.72   10.14
   2  -2 -13  290.22   18.90
   2  -2 -13  282.73   17.14
   2   2 -13  280.13   15.75
  -2   2  13  274.47   17.00
  -2  -2  13  276.58   27.39
  -2   2  13  237.20   20.73
   2  -2 -13  300.40   22.26
   2   2 -13  290.35   21.78
  -2   2  13  280.90   21.55
   2   2 -12  440.43   20.93
   2  -2 -12  404.43   23.50
  -2   2  12  429.49   22.49
   2  -2 -12  442.04   22.58
   2  -2 -12  453.32   27.32
  -2   2  12  419.67   27.05
   2   2 -12  454.87   27.53
  -2   2  12  400.67   26.22
   2  -2 -11  121.07   11.19
  -2   2  11  128.30   10.24
   2  -2 -11  125.40   10.19
   2   2 -11  143.25    9.65
   2   2 -11  168.47   15.34
  -2   2  11  131.34   13.54
   2  -2 -11  154.11   14.38
  -2   2  11  125.87   14.13
   2  -2 -10   34.84    5.21
  -2   2  10   31.77    4.86
   2  -2 -10   31.21    6.06
   2  -2 -10   35.19    7.44
  -2   2  10   32.70    7.10
   2   2 -10   40.19    8.74
  -2  -2  10   29.03    3.39
  -2  -2   9  135.51    6.75
   2  -2  -9  117.00   11.70
   2   2  -9  138.51   12.83
  -2   2   9  133.48   12.09
  -2   2   9  171.95   12.04
   2  -2  -9  135.94    9.97
   2  -2  -9  145.07   11.08
  -2   2   9  130.38    9.69
   2  -2  -8    2.88    2.58
  -2   2   8    5.06    2.82
  -2   2   8    4.75    3.63
   2  -2  -8    7.05    3.64
   2  -2  -8   -1.13    4.58
   2   2  -8    8.40    5.45
  -2   2   8    3.28    3.91
  -2   2   7  261.09   14.15
   2  -2  -7  255.13   13.93
  -2   2   7  273.71   15.50
   2   2  -7  277.59   17.03
   2  -2  -7  274.71   16.36
  -2   2   7  253.43   15.63
   2  -2  -6    3.39    3.10
   2  -2  -6   -0.59    1.88
  -2   2   6    0.60    1.69
  -2   2   6   -0.79    2.69
   2   2  -6    1.90    3.92
  -2   2   6    0.77    2.24
   2  -2  -5  641.32   26.70
  -2   2   5  633.21   27.99
  -2   2   5  638.04   26.91
  -2   2   5  632.54   29.17
   2  -2  -5  632.90   27.94
   2   2  -5  634.88   28.94
   2   2  -4  214.13   12.85
   2  -2  -4  216.85   12.77
  -2  -2   4  222.65    9.16
   2  -2  -4  212.88   11.31
  -2   2   4  219.77   11.55
   2   2  -4  222.94   12.94
  -2   2   4  237.94   13.19
   2  -2  -4  227.03   12.12
  -2   2   3   85.68    6.13
   2  -2  -3   89.66    6.15
   2   2  -3   86.09    4.54
  -2  -2   3   99.53    5.22
   2  -2  -3   81.77    6.56
   2  -2  -3   80.05    6.01
   2   2  -3   90.67    7.00
   2   2  -3   73.85    6.93
  -2   2   3   89.43    6.73
   2   2  -3  102.68    7.07
   2  -2  -3   93.10    6.78
   2   2  -2   32.70    4.56
   2   2  -2   42.46    3.79
  -2   2   2   34.42    3.85
   2   2  -2   31.14    3.32
  -2   2   2   44.03    4.79
  -2  -2   2   38.35    4.41
   2  -2  -2   34.67    3.34
  -2   2   2   35.09    3.93
  -2  -2   2   28.13    3.77
   2  -2  -2   35.93    3.57
   2   2  -2   31.12    3.54
   2   2  -2   40.26    3.68
   2  -2  -2   44.27    3.62
   2   2  -1  154.07    7.97
   2   2  -1  163.42    7.68
   2   2  -1  163.63    8.46
  -2  -2   1  151.17    9.00
  -2  -2   1  164.66    7.88
   2  -2  -1  177.09    8.11
  -2   2   1  146.59    7.93
  -2   2   1  168.78    8.20
   2   2  -1  158.33    7.31
   2  -2  -1  169.93    7.43
   2   2  -1  163.78    7.38
   2  -2  -1  166.19    7.43
  -2   2   1  148.62    7.62
  -2  -2   1  155.98    7.72
  -2  -2   0  436.66   20.05
  -2   2   0  479.13   18.48
   2  -2   0  467.40   18.71
   2   2   0  479.73   19.81
  -2  -2   0  438.84   18.34
   2   2   0  433.42   18.32
   2   2   0  440.06   18.08
  -2  -2   0  481.50   17.80
  -2   2   0  467.06   17.75
  -2  -2  -1  298.95   12.93
   2   2   1  280.99   12.90
   2   2   1  295.71   13.01
   2   2   1  283.11   12.24
   2  -2   1  311.26   13.09
  -2  -2  -1  294.23   11.76
  -2  -2  -1  293.23   15.10
   2   2   1  299.17   14.55
  -2  -2  -1  290.76   12.90
  -2   2  -1  287.35   13.29
  -2   2  -1  289.31   12.33
   2  -2   1  301.85   12.37
   2   2   1  280.02   12.21
  -2  -2  -1  290.94   12.41
   2   2   2 4229.46  152.16
  -2  -2  -2 4217.57  152.06
  -2  -2  -2 4332.29  152.00
   2   2   2 4318.24  151.90
   2   2   2 4078.87  153.70
   2   2   2 4167.60  150.45
  -2  -2  -2 4342.05  154.47
  -2   2  -2 4317.65  153.30
   2  -2   2 4233.31  152.45
  -2  -2  -2 4230.41  150.89
   2   2   2 4198.61  151.22
   2  -2   2 4398.56  151.30
  -2  -2  -2 4248.02  151.94
  -2   2  -2 4189.85  151.91
   2   2   3    1.32    1.58
  -2  -2  -3    0.99    2.24
  -2  -2  -3    3.16    1.93
   2  -2   3    4.96    2.79
   2   2   3    4.09    2.29
  -2   2  -3    5.14    4.15
  -2  -2  -3    3.44    4.26
  -2  -2  -3    3.00    5.36
   2   2   3    0.71    4.34
  -2  -2  -3   -0.46    3.79
   2  -2   3    8.56    3.40
  -2   2  -3    0.74    5.25
   2   2   3    3.31    2.10
  -2  -2  -3    1.44    1.52
   2   2   3    2.74    2.12
  -2  -2  -4  756.71   34.12
   2  -2   4  752.81   32.65
  -2   2  -4  740.35   33.94
   2   2   4  818.55   33.13
   2   2   4  798.41   31.92
  -2  -2  -4  769.49   31.76
  -2  -2  -4  813.35   32.62
   2   2   4  799.12   34.24
  -2  -2  -4  810.78   34.85
  -2  -2  -4  737.44   32.99
   2   2   4  823.60   32.12
   2  -2   4  785.75   34.04
  -2   2  -4  789.01   35.55
   2   2   4  820.15   31.60
  -2  -2  -4  792.49   30.82
   2   2   5  430.11   21.58
   2  -2   5  440.97   21.57
  -2  -2  -5  452.93   20.80
  -2  -2  -5  447.59   19.95
   2   2   5  421.54   19.78
   2   2   5  473.27   22.59
  -2   2  -5  460.30   23.68
  -2  -2  -5  411.86   23.01
  -2  -2  -5  416.50   22.62
   2   2   5  446.69   20.95
  -2   2  -5  426.56   24.05
  -2  -2  -5  410.42   21.89
   2  -2   5  467.86   23.05
   2   2   5  442.03   20.19
  -2  -2  -5  431.94   19.42
   2  -2   6  841.50   37.56
   2   2   6  804.41   37.33
   2   2   6  855.41   37.63
  -2   2  -6  862.86   32.21
  -2  -2  -6  884.97   36.33
  -2  -2  -6  860.08   35.14
   2   2   6  887.60   35.33
  -2  -2  -6  878.02   38.52
   2   2   6  807.81   36.66
  -2   2  -6  820.17   40.36
  -2  -2  -6  832.47   38.39
   2  -2   6  781.98   38.40
  -2  -2  -6  864.50   35.22
   2   2   6  847.04   36.06
   2  -2   7  804.26   37.19
   2   2   7  806.40   37.34
  -2  -2  -7  846.08   34.26
  -2  -2  -7  788.60   35.02
   2   2   7  769.34   33.92
  -2   2  -7  815.31   31.15
   2   2   7  822.32   36.67
  -2  -2  -7  761.90   37.14
   2  -2   7  798.73   38.75
  -2   2  -7  769.20   39.97
   2   2   7  811.19   36.70
  -2  -2  -7  840.37   34.70
   2   2   7  794.33   35.39
  -2  -2  -8   62.02    6.44
   2   2   8   63.77    6.45
  -2  -2  -8   67.93    7.64
  -2   2  -8   71.45    5.39
  -2  -2  -8   74.27   10.30
   2   2   8   65.43    8.53
   2  -2   8   49.92    8.39
   2   2   8   71.42    9.84
   2  -2   8   59.77    9.62
   2   2   8   67.67    9.20
  -2  -2  -8   67.56    7.54
   2   2   8   83.79    8.76
  -2  -2  -9   10.86    3.69
   2   2   9    5.15    2.92
  -2  -2  -9    5.24    4.00
   2   2   9   -4.47    5.70
   2  -2   9   -2.97    6.12
  -2   2  -9    2.98    3.38
   2   2   9   12.94    5.58
   2  -2   9    5.14    7.32
   2   2   9    1.41    6.67
  -2  -2  -9   12.06    4.64
   2   2  10  542.71   30.88
   2  -2  10  538.35   30.73
  -2  -2 -10  523.25   25.58
   2   2  10  540.34   25.82
  -2  -2 -10  541.76   27.29
   2   2  10  545.99   28.13
  -2   2 -10  517.61   23.37
   2  -2  10  527.07   32.27
   2   2  10  519.64   30.08
  -2  -2 -10  536.07   27.15
  -2   2 -10  486.59   29.67
   2   2  11   34.71    5.30
  -2  -2 -11   26.23    5.25
  -2  -2 -11   24.48    6.21
   2   2  11   28.50    7.08
  -2   2 -11   26.41    5.81
   2  -2  11   29.02    9.23
   2   2  11   36.29    9.86
   2   2  11   34.89    9.96
   2  -2  11   51.68   11.78
  -2  -2 -11   44.21    7.31
  -2   2 -11   31.96    9.05
  -2  -2 -12   -1.04    3.70
  -2  -2 -12    7.86    5.69
   2   2  12    2.70    6.04
   2   2  12    5.90    9.20
   2  -2  12    3.94    8.69
   2   2  12    1.91    9.03
   2  -2  12   -8.91   11.12
  -2   2 -12    1.79    7.79
  -2  -2 -12    1.33    4.99
  -2  -2 -13   36.22    7.92
  -2  -2 -13   53.97    7.56
   2   2  13   62.88    9.99
   2   2  13   42.32   12.23
   2  -2  13   44.58   13.13
   2  -2  13   33.49   13.02
   2   2  13   41.13   11.99
  -2   2 -13   62.79   11.88
  -2  -2 -13   37.24    8.65
  -2   2 -14   55.32    7.29
  -2  -2 -14   41.22    8.63
  -2  -2 -14   39.80    6.86
   2   2  14   42.94   13.14
   2  -2  14   27.25   12.09
   2   2  14   56.17    9.64
   2   2  14   33.12   12.26
   2  -2  14   35.70   13.70
  -2   2 -14   34.10   11.47
  -2  -2 -14   32.04    8.37
   2  -2  15  352.41   27.45
   2   2  15  254.22   24.89
   2   2  15  323.09   21.18
  -2   2 -15  271.07   17.43
   2   2  15  199.49   23.25
   2  -2  15  272.30   27.12
  -2  -2 -15  295.39   21.06
   2   2  16   -1.51    6.66
   2   2  16    2.49   11.94
   2  -2  16    5.69   12.54
   2  -2  16   -7.65   10.88
   2   2  16    2.53   12.00
  -2  -2 -16   -3.39    6.74
   2  -2  17    2.98   13.91
   2   2  17   -5.23   12.05
   2  -2  17    8.03   11.43
   2   2  17   -7.97   11.89
   2   2  18   51.92   15.55
   2  -2  18   18.65   12.42
   2  -2  18   47.59   14.53
   2   2  18   33.34   13.23
   2  -2  19   12.91   14.01
   2   2  19    2.85   12.17
   2  -2  19    2.92   11.81
   2   2  19   14.45   12.34
   2  -2  20  216.70   25.58
   2   2  20  194.96   24.10
   2   2  20  155.92   22.09
   2  -2  20  169.28   22.13
   2  -2  21    3.43   14.15
   2   2  21    3.04   11.62
   2  -2  21    3.12   11.91
   2   2  21   -9.28   12.30
   2  -2  22    7.03   13.42
   2   2  22    6.24   11.15
   2   2  22    3.18   12.40
   2  -2  22   -3.21   14.99
   2   2  23   19.14   13.16
   2  -2  23   17.91   14.24
   2   2  23   -9.77   14.59
   2  -2  23   19.69   14.25
  -2  -3  23    8.38   17.59
  -2   3  23    3.75   16.01
  -2  -3  23    7.55   15.29
  -2  -3  22   49.54   19.33
  -2  -3  22   29.77   16.44
  -2   3  22   18.45   17.29
  -2  -3  21   40.30   18.61
  -2   3  21   52.68   18.18
  -2  -3  21   32.87   16.63
  -2   3  21    7.22   14.38
  -2   3  20   44.21   17.02
  -2  -3  20   82.29   22.06
  -2   3  20   24.64   15.81
  -2  -3  20   21.42   16.03
  -2   3  20   31.78   12.80
  -2  -3  19    7.58   15.35
  -2   3  19   -9.86   15.15
  -2  -3  19   -6.95   13.54
  -2   3  19    3.42   14.60
  -2   3  19   13.76   10.72
  -2  -3  18   10.13   16.02
  -2   3  18  -13.26   15.29
  -2   3  18   10.14    5.42
  -2  -3  18   18.32   15.90
  -2   3  18    3.15   13.43
  -2   3  18   10.45    9.55
  -2  -3  17  134.11   22.85
  -2   3  17  131.38   20.96
  -2   3  17  103.44   15.71
  -2   3  17   94.85   11.03
  -2  -3  17  130.01   23.08
  -2   3  17  126.28   20.80
  -2   3  17  123.54   17.34
  -2   3  16  231.53   26.24
  -2   3  16  249.16   17.12
  -2   3  16  217.01   25.14
  -2  -3  16  174.40   25.53
  -2   3  16  225.25   21.84
  -2   3  16  182.84   19.45
  -2   3  15   41.04    7.25
  -2   3  15   56.37   16.65
  -2  -3  15   22.37   16.57
  -2   3  15   36.95   11.68
  -2   3  15   19.92   11.26
   2   3 -14  325.78   18.77
  -2   3  14  354.44   21.05
   2  -3 -14  379.97   21.61
  -2   3  14  418.74   27.90
  -2  -3  14  349.92   31.83
  -2   3  14  325.87   28.78
   2  -3 -14  343.17   24.67
  -2   3  14  439.28   27.99
   2   3 -14  340.97   25.29
  -2   3  13   23.17    5.70
   2  -3 -13   30.46    6.15
  -2   3  13   13.31   10.62
  -2  -3  13   31.14   14.99
   2  -3 -13   20.66    7.98
  -2   3  13   13.09    8.54
   2   3 -13   31.35   11.35
  -2   3  12    6.59    3.85
   2  -3 -12   10.69    4.65
  -2   3  12   18.58   10.65
   2  -3 -12   16.01    7.28
  -2  -3  12   18.48   13.81
  -2   3  12    8.55    6.26
   2   3 -12   24.37    9.70
  -2   3  11  254.85   20.58
   2  -3 -11  239.93   15.19
  -2   3  11  235.00   15.19
   2   3 -11  202.74   18.00
   2  -3 -11  235.30   17.74
  -2   3  11  243.33   18.24
  -2   3  10  162.65   12.11
  -2   3  10  185.29   14.11
   2  -3 -10  181.11   12.41
   2   3 -10  164.16   15.12
   2  -3 -10  176.20   14.43
  -2   3  10  190.77   14.91
   2  -3  -9   12.15    4.83
   2  -3  -9   10.52    3.81
   2   3  -9    4.21    5.37
  -2   3   9    7.33    4.77
  -2   3   9    5.44    2.93
  -2   3   9    4.69    3.99
   2  -3  -8  484.51   22.38
  -2   3   8  409.98   23.16
  -2   3   8  468.09   22.44
  -2   3   8  424.51   23.23
   2  -3  -8  453.21   23.84
   2   3  -8  432.48   24.97
   2  -3  -7   26.37    5.36
   2  -3  -7   25.96    4.49
  -2   3   7   28.04    4.41
  -2   3   7   19.87    4.46
  -2   3   7   19.44    4.58
   2   3  -7   24.41    6.71
   2  -3  -6    8.04    3.51
  -2   3   6    7.66    2.82
   2  -3  -6   13.52    3.43
  -2   3   6   10.05    3.71
   2   3  -6    7.26    4.44
  -2   3   6    7.49    4.42
   2  -3  -5  314.38   17.10
   2   3  -5  295.82   16.86
   2  -3  -5  295.04   15.69
  -2   3   5  313.74   16.12
  -2   3   5  316.69   17.00
   2  -3  -5  308.63   15.85
   2   3  -5  316.50   17.79
  -2   3   5  315.94   17.56
   2   3  -4  116.24    5.97
   2  -3  -4  103.48    7.80
  -2   3   4  114.15    8.09
   2  -3  -4  124.36    8.51
   2  -3  -4  124.76    8.01
   2   3  -4  112.17    8.44
   2  -3  -4  120.74    8.29
  -2   3   4  108.13    8.44
   2   3  -4  128.56    9.56
   2   3  -3  219.53   10.30
  -2   3   3  224.63   12.06
   2  -3  -3  232.05   11.04
   2  -3  -3  211.47   10.88
   2   3  -3  184.76   10.78
  -2  -3   3  204.42   11.15
   2  -3  -3  207.69   10.77
   2   3  -3  213.09   11.07
  -2   3   3  220.44   11.82
  -2   3   2 1187.92   46.67
   2   3  -2 1215.55   45.44
   2  -3  -2 1256.11   44.94
  -2  -3   2 1181.23   46.38
  -2   3   2 1176.01   44.53
   2   3  -2 1196.06   44.23
   2  -3  -2 1140.52   43.92
  -2   3   2 1174.34   45.51
   2   3  -1   71.15    6.27
   2   3  -1   79.70    5.56
  -2  -3   1   70.60    4.75
  -2   3   1   75.92    4.80
  -2   3   1   75.49    5.17
  -2   3   1   76.98    4.68
  -2  -3   1   77.59    7.32
   2   3  -1   80.91    4.24
   2  -3  -1   85.55    4.32
  -2   3   1   78.68    4.84
  -2  -3   1   73.24    4.78
  -2   3   0  477.22   18.36
  -2   3   0  480.26   18.32
  -2  -3   0  485.78   18.44
   2   3   0  439.64   21.72
   2   3   0  472.08   20.31
  -2   3   0  505.12   19.74
   2  -3   0  467.35   19.48
  -2  -3   0  456.74   22.53
  -2   3   0  451.54   19.27
  -2   3   0  480.41   18.41
  -2  -3   0  479.31   18.42
  -2  -3  -1    3.76    1.80
   2   3   1    4.80    1.95
  -2   3  -1    7.84    1.87
  -2  -3  -1    5.74    1.77
  -2  -3  -1    8.23    5.45
   2   3   1    5.23    3.78
   2  -3   1    5.48    1.87
  -2   3  -1    3.26    2.70
  -2  -3  -1    5.22    1.14
   2   3   1    3.70    2.01
   2   3   2   17.05    2.35
   2  -3   2   16.92    2.21
   2   3   2   10.77    2.83
   2   3   2   19.40    3.02
  -2  -3  -2   15.29    2.83
  -2  -3  -2   19.21    3.58
  -2   3  -2   10.97    3.25
  -2  -3  -2   20.20    6.01
   2   3   2   10.92    4.75
   2   3   2   14.87    1.87
   2  -3   2   12.01    2.88
  -2  -3  -2   18.91    2.43
  -2   3  -2    5.22    3.88
  -2  -3  -2   16.30    2.39
   2  -3   3  666.94   25.98
  -2  -3  -3  625.31   27.56
  -2   3  -3  625.83   27.52
   2   3   3  653.50   26.03
   2   3   3  648.18   27.57
   2   3   3  678.10   27.35
  -2  -3  -3  639.00   27.06
   2   3   3  639.31   24.45
  -2  -3  -3  654.12   30.88
   2   3   3  643.29   29.96
   2  -3   3  617.41   27.51
  -2   3  -3  654.88   29.45
  -2  -3  -3  616.85   25.94
   2   3   3  623.00   24.77
   2   3   4   47.79    5.15
   2   3   4   52.70    5.19
   2   3   4   44.46    5.38
  -2  -3  -4   44.55    5.23
  -2  -3  -4   56.78    5.41
  -2   3  -4   61.05    7.56
   2  -3   4   45.58    4.85
  -2  -3  -4   52.55    7.15
   2   3   4   42.81    7.18
  -2  -3  -4   49.33    8.29
  -2   3  -4   32.88    7.03
   2   3   4   54.22    4.30
  -2  -3  -4   56.46    6.37
   2  -3   4   54.53    6.33
   2   3   4   47.11    4.45
  -2  -3  -5   46.30    5.64
   2   3   5   66.33    5.89
  -2  -3  -5   51.56    5.53
   2   3   5   45.26    6.03
   2  -3   5   40.14    5.69
  -2  -3  -5   39.40    8.39
   2   3   5   57.45    7.71
   2   3   5   53.86    5.25
   2  -3   5   56.97    7.48
  -2   3  -5   48.99    8.94
   2   3   5   51.58    5.26
   2  -3   6 2450.41   95.09
   2   3   6 2505.03   95.45
  -2  -3  -6 2423.45   94.42
  -2  -3  -6 2580.28   94.21
   2   3   6 2510.12   93.80
   2  -3   6 2458.53   97.34
  -2   3  -6 2482.64   99.79
   2   3   6 2513.00   93.92
   2   3   6 2515.61   93.46
   2   3   6 2494.96   97.36
   2  -3   7  381.17   21.83
   2   3   7  353.20   21.40
  -2  -3  -7  396.38   20.94
  -2  -3  -7  420.96   20.44
   2   3   7  409.86   20.29
  -2   3  -7  374.87   25.56
   2   3   7  386.82   20.85
   2  -3   7  395.07   23.93
   2   3   7  393.26   20.39
  -2   3  -7  402.73   16.15
   2   3   7  408.77   23.40
   2  -3   8 1227.91   53.32
   2   3   8 1230.64   53.52
  -2  -3  -8 1189.96   51.14
   2   3   8 1221.16   50.36
  -2  -3  -8 1273.74   50.47
  -2   3  -8 1237.30   45.50
   2   3   8 1260.46   54.08
   2  -3   8 1230.26   55.69
   2   3   8 1195.65   52.07
  -2  -3  -8 1186.94   49.06
   2   3   8 1231.06   51.23
  -2  -3  -9   59.74    7.65
  -2  -3  -9   79.04    7.82
   2   3   9   53.37    7.01
  -2   3  -9   63.55    4.86
   2  -3   9   54.57    9.36
   2   3   9   69.52   10.09
   2   3   9   74.77   10.15
   2   3   9   57.61    9.09
   2  -3   9   52.33   10.42
   2   3   9   73.85    8.92
  -2  -3  -9   67.85    7.37
  -2  -3 -10   71.44    8.90
   2   3  10   56.99    7.10
  -2  -3 -10   66.73    7.62
   2  -3  10   49.74   10.63
   2   3  10   53.16   10.67
   2   3  10   82.78   11.45
   2  -3  10   65.46   12.49
   2   3  10   73.87   10.89
  -2  -3 -10   62.98    7.59
   2   3  10   71.96    9.61
  -2  -3 -11   61.23    8.54
   2   3  11   48.88    7.03
  -2  -3 -11   50.63    7.27
   2  -3  11   37.11    9.98
   2   3  11   40.70   10.55
   2   3  11   55.48   10.87
   2   3  11   38.77   10.21
   2  -3  11   77.65   13.98
  -2  -3 -11   36.59    6.66
  -2   3 -11   28.68    9.82
   2   3  11   80.28   10.79
  -2  -3 -12   62.49    9.24
   2   3  12   65.72    7.97
  -2  -3 -12   68.33    8.33
   2   3  12   69.19   12.72
   2  -3  12   67.40   12.38
   2   3  12   59.14   10.64
   2  -3  12   36.29   12.81
   2   3  12   63.82   12.24
  -2   3 -12   68.36   12.30
  -2  -3 -12   51.88    8.35
  -2  -3 -13   57.55    9.28
   2   3  13   50.98    7.39
  -2  -3 -13   43.51    7.34
   2   3  13   29.70    9.97
   2  -3  13   45.76   12.73
   2   3  13   20.69   10.03
   2  -3  13   14.59   11.29
   2   3  13   26.95   11.11
  -2  -3 -13   30.64    7.76
  -2   3 -13   56.07   12.36
   2   3  14   77.32   15.09
   2  -3  14   73.49   14.29
   2   3  14   72.89   11.60
   2  -3  14   67.13   15.37
   2   3  14   47.51   13.66
   2   3  14   62.62    8.59
   2   3  15  331.36   23.04
   2  -3  15  300.89   27.59
   2   3  15  293.35   25.01
   2   3  15  246.09   24.00
   2  -3  15  272.29   25.17
   2   3  16    2.33   11.22
   2  -3  16  -14.41   14.03
   2   3  16   12.32    8.00
   2  -3  16    7.51   10.86
   2   3  16   17.31   11.56
   2   3  17   19.67   11.55
   2  -3  17   30.12   13.53
   2   3  17   53.49   10.99
   2   3  17   12.98   10.56
   2  -3  17   39.44   13.48
   2   3  18   33.45   12.72
   2  -3  18   21.96   13.65
   2  -3  18   33.03   12.55
   2   3  18   24.39   13.39
   2  -3  19   -9.77   15.44
   2   3  19    2.67   11.61
   2  -3  19    5.73   12.23
   2   3  19   -8.46   12.05
   2  -3  20  -13.44   14.82
   2  -3  20   -8.90   12.24
   2   3  20   -8.76   13.66
   2  -3  21   72.46   17.83
   2   3  21   69.28   16.31
   2  -3  21   85.67   18.35
   2  -3  22  127.40   20.78
   2  -3  22   97.38   19.31
   2   3  22   92.84   19.04
   2   3  23    9.50   13.52
   2  -3  23   12.87   13.73
  -2   4  23    3.55   16.39
  -2  -4  23   -3.63   15.98
  -2  -4  22    4.08   15.57
  -2   4  22   34.92   16.10
  -2  -4  22    3.58   14.50
  -2  -4  21    3.99   17.31
  -2   4  21   -6.84   14.10
  -2  -4  21   -3.51   14.75
  -2  -4  20    7.81   15.21
  -2  -4  20   -3.44   16.72
  -2   4  20    3.33   14.23
  -2   4  20   14.22    9.91
  -2  -4  19   87.08   19.74
  -2   4  19  110.06   20.08
  -2   4  19  126.62   13.66
  -2  -4  19  128.65   24.27
  -2   4  19   94.96   16.96
  -2   4  18   28.22   14.51
  -2  -4  18   25.99   16.06
  -2   4  18   37.72   13.18
  -2   4  18   32.67    7.18
  -2  -4  18   40.20   17.83
  -2   4  18   56.83   13.26
  -2   4  17   36.27   15.99
  -2  -4  17   25.16   14.51
  -2   4  17   13.97   10.44
  -2   4  17   16.57    5.90
  -2  -4  17   17.57   15.01
  -2   4  17    4.88    8.94
  -2  -4  16    6.06   12.73
  -2   4  16   14.54   13.22
  -2   4  16   -6.88   11.45
  -2   4  16    1.45    4.92
  -2   4  16   10.68   12.82
  -2  -4  16   -6.72   13.86
  -2   4  16   11.49    9.13
  -2   4  15    2.79   12.85
  -2  -4  15   20.39   16.06
  -2   4  15    6.95    4.47
  -2   4  15   -4.50   11.37
  -2  -4  15    3.20   15.78
  -2   4  15   17.67   13.77
  -2   4  15    4.30    8.21
  -2   4  14   17.37    5.84
   2  -4 -14   28.12    8.47
  -2   4  14   26.44   12.16
  -2   4  14    9.44   12.63
  -2  -4  14    6.09   14.06
  -2   4  14   22.05    9.78
  -2   4  13  242.65   17.07
  -2   4  13  275.96   23.67
   2  -4 -13  260.56   17.19
  -2   4  13  260.01   24.00
  -2  -4  13  244.00   27.07
   2   4 -13  249.07   21.29
  -2   4  13  244.17   20.30
   2  -4 -13  243.24   19.13
  -2   4  12  233.10   15.85
   2  -4 -12  184.17   14.52
  -2   4  12  210.81   21.24
  -2  -4  12  231.11   25.05
  -2   4  12  244.64   19.01
   2   4 -12  235.25   19.91
   2  -4 -12  205.84   17.11
  -2   4  11   16.13    5.19
  -2   4  11   22.29    7.07
   2  -4 -11   10.97    4.72
   2  -4 -11   11.22    6.11
  -2   4  11   43.35   12.88
  -2  -4  11   34.98   13.64
   2   4 -11   37.77   10.21
  -2   4  11   10.67    6.75
  -2   4  10  315.00   19.01
  -2   4  10  366.38   21.71
   2  -4 -10  290.79   18.33
  -2   4  10  369.60   26.13
  -2  -4  10  320.33   27.07
   2   4 -10  318.36   22.47
   2  -4 -10  330.03   20.51
  -2   4  10  332.86   21.12
   2  -4  -9   13.80    4.84
   2  -4  -9    9.91    3.96
  -2   4   9   13.62    3.85
  -2   4   9    8.49    4.64
   2   4  -9    5.96    6.26
  -2  -4   9   25.27   11.84
  -2   4   9    7.84    4.68
   2  -4  -8 1299.85   55.01
  -2   4   8 1347.20   55.64
  -2   4   8 1256.49   57.15
   2  -4  -8 1330.85   55.74
  -2   4   8 1358.83   56.36
   2  -4  -7   12.45    4.11
  -2   4   7    8.67    3.21
   2  -4  -7    9.82    3.70
  -2   4   7    5.71    3.79
   2  -4  -6  538.56   26.00
   2   4  -6  484.37   25.37
   2  -4  -6  534.75   24.97
   2   4  -6  521.26   19.85
  -2   4   6  571.37   25.82
  -2   4   6  474.95   25.74
   2   4  -6  556.78   27.84
  -2   4   6  506.25   26.57
   2  -4  -6  502.02   24.08
   2  -4  -5  238.24   14.00
  -2   4   5  218.34   13.71
   2   4  -5  221.47   10.53
  -2   4   5  228.02   14.74
   2   4  -5  206.51   14.91
   2  -4  -5  252.84   14.02
   2  -4  -5  251.33   13.05
   2   4  -5  236.74   13.85
  -2   4   4 1230.14   49.29
   2   4  -4 1201.09   45.89
   2   4  -4 1214.81   47.47
   2  -4  -4 1190.80   47.09
   2  -4  -4 1208.47   46.86
   2  -4  -4 1191.56   46.91
   2   4  -4 1206.52   47.26
  -2   4   4 1238.57   49.14
  -2   4   3    1.58    2.31
  -2   4   3    0.65    2.17
   2  -4  -3    2.72    1.62
   2   4  -3    3.26    2.51
  -2   4   3    2.98    1.95
   2   4  -3    0.85    1.62
   2  -4  -3    2.59    1.44
   2   4  -3    2.84    1.76
   2  -4  -2    9.99    1.52
  -2   4   2   11.62    3.16
  -2   4   2    9.08    2.53
   2   4  -2   16.46    4.49
  -2   4   2   13.76    2.12
   2   4  -2   12.18    1.80
   2  -4  -2    9.85    1.59
  -2   4   1  668.04   27.71
  -2   4   1  673.59   26.67
  -2   4   1  698.19   26.65
   2   4  -1  680.07   30.21
   2   4  -1  713.30   29.00
  -2   4   0   81.92    4.27
  -2  -4   0   80.46    4.34
   2   4   0   75.15    6.25
  -2  -4   0   79.57    4.45
  -2   4   0   86.13    5.67
   2   4   0   93.40    8.53
   2  -4   0   81.28    5.48
  -2   4   0   80.85    5.87
  -2  -4   0   68.08    4.29
  -2   4   0   86.27    4.51
   2   4   1   98.99    9.74
   2  -4   1  125.26    7.07
  -2  -4  -1  117.02    6.47
  -2  -4  -1  115.40    5.56
  -2   4  -1  114.31    5.53
  -2   4  -1  113.50    6.38
  -2   4  -1  110.42    8.39
   2   4   1   97.74    7.61
  -2   4  -2  406.33   18.44
  -2  -4  -2  392.05   18.22
   2  -4   2  451.92   16.97
   2   4   2  411.85   16.80
   2   4   2  413.76   19.77
   2   4   2  392.98   19.44
  -2  -4  -2  449.77   19.90
   2   4   2  365.15   21.66
   2  -4   2  410.83   18.50
  -2   4  -2  439.05   20.98
  -2  -4  -2  394.81   15.84
   2  -4   3  762.05   29.24
   2   4   3  742.65   29.17
   2   4   3  773.04   32.46
   2   4   3  774.75   32.35
  -2  -4  -3  762.43   31.83
  -2  -4  -3  719.99   31.64
   2   4   3  732.17   27.73
   2   4   3  741.44   35.08
  -2   4  -3  738.97   33.99
   2  -4   3  770.52   31.55
  -2  -4  -3  705.46   28.87
   2  -4   4    0.51    2.12
   2   4   4    2.55    2.35
  -2  -4  -4    1.49    2.39
   2   4   4    1.55    2.34
   2   4   4    0.84    2.63
   2   4   4    1.23    5.09
   2  -4   4    0.82    3.38
   2   4   4    0.25    1.32
  -2   4  -4    4.69    6.39
   2   4   4   -0.40    1.84
  -2  -4  -4    2.07    2.52
   2   4   5  808.11   34.81
   2  -4   5  812.21   34.88
  -2  -4  -5  838.61   35.96
   2   4   5  840.26   36.09
   2   4   5  932.77   37.69
   2   4   5  900.70   40.42
   2   4   5  837.52   32.79
   2  -4   5  854.08   37.64
  -2   4  -5  834.06   40.30
  -2  -4  -5  842.71   35.10
   2   4   5  814.85   33.82
   2   4   6  460.53   22.90
   2  -4   6  458.18   22.83
   2   4   6  473.65   23.01
   2   4   6  513.94   24.54
  -2  -4  -6  447.83   22.57
   2   4   6  420.57   25.74
   2   4   6  484.38   20.94
   2  -4   6  456.91   24.94
  -2   4  -6  462.98   27.90
  -2  -4  -6  441.14   22.53
   2   4   6  450.71   21.49
   2   4   7  105.44   10.08
  -2  -4  -7  101.13    8.77
   2   4   7  107.33    8.97
  -2  -4  -7   81.92    8.74
   2  -4   7   77.13    8.74
   2   4   7   84.37   11.40
   2   4   7   86.64    8.00
   2  -4   7   78.15   10.19
   2   4   7   90.30    8.44
  -2  -4  -7   97.74    9.33
   2  -4   8  475.11   25.53
   2   4   8  451.86   25.31
   2   4   8  450.46   23.55
  -2  -4  -8  497.78   24.16
  -2  -4  -8  459.01   24.53
  -2   4  -8  476.37   18.56
   2   4   8  482.50   28.00
   2  -4   8  435.57   27.22
   2   4   8  455.07   23.39
   2   4   8  424.62   23.27
  -2  -4  -9    9.46    4.89
   2   4   9   11.64    4.30
  -2  -4  -9   10.46    4.32
   2  -4   9    5.43    6.27
   2   4   9    2.75    6.52
   2   4   9    8.17    8.16
   2   4   9    4.43    5.26
   2  -4   9    1.75    8.50
   2   4   9   14.22    5.91
   2  -4  10  247.38   19.74
   2   4  10  281.27   20.55
   2   4  10  316.71   22.39
  -2  -4 -10  256.66   18.15
  -2  -4 -10  301.76   18.11
   2   4  10  271.27   17.44
   2   4  10  290.11   19.34
   2  -4  10  269.33   22.23
   2   4  10  302.51   19.19
   2   4  11   10.15    8.04
   2  -4  11    3.38    8.55
  -2  -4 -11   19.09    5.60
   2   4  11   19.03    5.27
  -2  -4 -11   14.79    6.31
   2   4  11    7.08    8.95
   2   4  11    5.76    7.62
   2  -4  11   12.62   10.12
   2   4  11   28.95    7.76
   2  -4  12   24.06   10.61
   2   4  12   -1.84    9.53
  -2  -4 -12   17.56    5.72
   2   4  12   16.47   10.49
   2   4  12   15.00    5.36
  -2  -4 -12   22.75    7.20
   2   4  12    3.19    9.24
   2  -4  12    6.82   11.35
   2   4  12   13.70    8.06
  -2   4 -12   12.01    8.84
   2  -4  13   70.14   13.35
   2   4  13   75.43   13.93
   2   4  13   90.55   14.36
   2   4  13   73.58    9.39
   2   4  13   59.29   11.85
   2  -4  13   99.85   18.01
   2   4  13   96.59   13.00
   2   4  14   86.58   13.78
   2   4  14   96.51   11.04
   2   4  14  130.02   15.94
   2  -4  14  124.52   19.13
   2   4  14  112.51   16.32
   2  -4  14  139.80   17.60
   2   4  15    5.90    7.97
   2   4  15   -1.43    4.47
   2   4  15   -6.04    9.79
   2  -4  15   -2.74   12.08
   2  -4  15   -9.16   11.01
   2   4  15   -6.76    9.94
   2   4  16   80.10   13.55
   2   4  16   91.05   10.84
   2  -4  16  103.78   17.85
   2   4  16   97.52   15.41
   2  -4  16  106.69   16.90
   2   4  17   14.23    8.54
   2   4  17    7.73    5.40
   2  -4  17    6.04   12.23
   2   4  17   17.45   10.82
   2  -4  17   -2.55   11.59
   2  -4  18   28.24   14.97
   2   4  18   59.35   12.46
   2  -4  18   50.71   14.50
   2   4  18   44.29   13.26
   2   4  19   56.82   14.56
   2  -4  19   38.87   13.45
   2  -4  19   58.43   16.87
   2  -4  20    2.88   12.29
   2   4  20    2.80   12.15
   2  -4  20   13.41   12.26
   2   4  21   17.33   12.98
   2  -4  21   53.41   15.73
   2  -4  21   34.38   13.97
   2  -4  22   -9.13   12.09
   2   4  22    5.92   12.43
   2  -4  22   10.55   13.42
   2   4  23  -12.10   14.72
   2  -4  23   -6.21   13.90
  -2  -5  22   43.92   19.49
  -2  -5  21   -3.91   16.42
  -2   5  21   19.71    7.27
  -2  -5  20   23.00   16.10
  -2   5  20   17.53    7.76
  -2   5  19   36.86   13.64
  -2   5  19   29.18    7.86
  -2  -5  19   11.18   15.13
  -2   5  19   27.01   14.07
  -2   5  18   -2.62   12.23
  -2   5  18    6.68    5.82
  -2  -5  18  -10.83   16.17
  -2   5  18   11.61   14.31
  -2   5  17  -15.47   12.22
  -2   5  17    4.85    5.20
  -2  -5  17    6.96   15.58
  -2  -5  17    8.95   13.56
  -2   5  17    5.59   13.26
  -2  -5  16  189.47   23.87
  -2   5  16  179.76   22.89
  -2   5  16  139.68   19.77
  -2   5  16  159.76   14.70
  -2  -5  16  150.23   23.43
  -2   5  16  198.35   19.45
  -2  -5  15   11.00   12.70
  -2   5  15   38.46   14.28
  -2   5  15   14.97   11.68
  -2   5  15   15.18    5.70
  -2  -5  15   12.76   12.93
  -2   5  15   14.95    8.67
  -2   5  14  190.30   22.06
  -2  -5  14  204.81   23.70
  -2   5  14  139.36   19.57
  -2   5  14  176.75   14.99
  -2  -5  14  209.04   25.30
  -2   5  14  168.95   17.38
  -2   5  13   30.04   13.97
  -2  -5  13   24.91   15.18
  -2   5  13   25.25    6.52
  -2   5  13    9.57   11.82
  -2  -5  13   17.18   14.99
  -2   5  13   25.69    9.08
  -2   5  12   -1.35    4.20
  -2   5  12   -3.43    6.12
   2  -5 -12   -5.75    5.93
  -2   5  12   -9.36   11.95
  -2  -5  12   21.52   15.12
  -2   5  12   -1.68    5.99
   2   5 -12    1.91    8.91
  -2   5  11   94.13   10.15
  -2   5  11   89.61   11.59
   2  -5 -11  116.18   10.69
   2  -5 -11   78.85   10.02
  -2   5  11  116.57   17.20
  -2  -5  11   65.04   16.04
   2   5 -11   71.83   12.69
  -2   5  11   92.46   11.16
  -2   5  10   29.25    7.74
   2  -5 -10   30.15    5.93
  -2   5  10   31.14    6.06
   2  -5 -10   16.70    5.26
  -2   5  10   38.06   13.55
  -2  -5  10   51.00   15.57
  -2   5  10   21.86    6.72
   2   5 -10   38.85   10.41
  -2   5   9  144.62   11.89
  -2   5   9  116.29   12.00
   2  -5  -9  103.34   10.33
  -2  -5   9  159.74   19.12
  -2   5   9  114.80   11.23
   2  -5  -9   99.75   10.00
  -2   5   8   33.01    6.50
   2  -5  -8   24.29    6.60
   2  -5  -8   17.17    4.80
   2   5  -8   41.80    7.77
  -2   5   8   35.98    6.14
   2  -5  -8   27.79    5.73
  -2  -5   8   46.46   12.11
   2   5  -8   42.32    9.63
  -2   5   8   16.42    5.48
  -2   5   7   83.92    8.87
  -2   5   7   81.94    9.39
   2  -5  -7   79.09    8.49
   2   5  -7   82.07    4.67
   2  -5  -7   68.47    7.12
   2   5  -7   86.57    9.25
   2  -5  -7   96.85    9.62
  -2  -5   7   72.86   12.42
   2   5  -7   73.92   10.06
   2  -5  -6   19.36    4.77
  -2   5   6   28.39    6.14
   2  -5  -6   27.70    5.23
  -2   5   6   23.64    5.22
   2  -5  -6   17.15    4.60
   2  -5  -6   21.60    4.01
   2   5  -6   21.13    4.87
   2   5  -6   19.43    3.05
  -2  -5   6   33.77    9.07
  -2   5   5 1280.68   50.58
  -2   5   5 1197.20   50.12
   2   5  -5 1196.44   45.91
   2  -5  -5 1173.69   47.10
   2  -5  -5 1214.57   46.92
   2   5  -5 1197.70   47.47
  -2  -5   5 1160.95   52.48
   2   5  -5 1137.60   47.02
   2  -5  -5 1162.61   46.82
  -2   5   4 1285.26   51.80
   2   5  -4 1327.03   50.00
  -2   5   4 1271.12   52.63
   2  -5  -4 1263.90   48.93
   2  -5  -4 1243.59   48.34
   2   5  -4 1263.19   48.89
  -2   5   4 1285.81   47.86
  -2  -5   4 1257.06   53.96
   2  -5  -4 1250.47   48.23
   2   5  -4 1266.06   48.69
  -2   5   3  320.78   16.02
   2   5  -3  257.91   15.53
  -2   5   3  258.17   16.38
   2  -5  -3  313.47   14.18
  -2   5   3  300.96   12.54
  -2  -5   3  241.08   16.44
   2   5  -3  283.57   12.68
   2  -5  -3  299.63   12.58
  -2   5   2   92.02    7.48
  -2   5   2  105.44    9.25
   2   5  -2  106.71    9.38
   2   5  -2   85.92    7.92
  -2   5   2  109.03    5.99
  -2  -5   2  109.83    9.29
   2  -5  -2  109.72    5.32
   2   5  -2  110.70    5.32
   2   5  -1   21.61    3.85
  -2   5   1   16.10    4.09
  -2   5   1   17.80    2.95
   2   5  -1   14.54    5.59
  -2   5   1   16.48    3.27
  -2  -5   1   18.12    4.13
  -2  -5   1   16.91    1.75
   2   5   0   38.56    7.12
   2  -5   0   32.54    3.72
  -2   5   0   28.55    3.45
  -2   5   0   29.56    4.84
   2   5   0   31.32    4.69
   2   5   1   56.20    8.58
   2  -5   1   44.02    4.16
  -2   5  -1   39.73    2.74
  -2  -5  -1   39.12    2.71
  -2   5  -1   49.43    6.88
   2   5   1   42.06    5.39
   2   5   2  140.78   10.16
   2   5   2  131.40    9.72
   2  -5   2  112.62    7.90
   2   5   2  151.68   13.13
  -2   5  -2  143.41   11.75
  -2  -5  -2  125.64    6.15
   2   5   3  464.09   22.00
   2   5   3  396.60   21.22
  -2  -5  -3  443.47   21.42
  -2  -5  -3  409.33   16.82
   2   5   3  413.30   24.52
   2  -5   3  441.76   20.11
  -2   5  -3  406.35   23.05
   2   5   3  415.37   17.49
   2  -5   3  417.61   17.42
   2   5   4    2.96    3.53
   2   5   4    6.67    3.32
  -2  -5  -4    5.28    3.50
  -2  -5  -4    3.24    1.76
   2   5   4    8.67    7.12
   2  -5   4    1.61    3.43
  -2   5  -4    6.34    7.59
   2   5   4    1.32    2.33
   2  -5   4    4.77    2.06
   2   5   5    7.02    2.96
   2  -5   5    7.51    2.99
   2   5   5    4.28    3.73
   2   5   5    1.95    2.64
  -2  -5  -5    1.85    2.88
  -2  -5  -5    8.52    2.87
   2   5   5    4.60    6.43
   2  -5   5    1.95    4.10
   2   5   5    5.08    1.75
   2   5   5    4.87    2.54
   2  -5   6   81.73    7.35
   2   5   6   84.51    7.63
   2   5   6   82.25    9.06
   2   5   6   76.43    8.16
  -2  -5  -6   70.06    7.72
   2   5   6   90.59   11.96
   2  -5   6   75.05    9.08
   2   5   6   72.88    5.44
   2   5   6   98.11    7.51
  -2  -5  -6   85.19    7.47
   2   5   7   53.60    7.89
   2   5   7   32.00    5.67
  -2  -5  -7   31.88    5.66
   2   5   7   36.66    6.12
   2  -5   7   35.26    6.52
   2   5   7   52.56   10.41
   2  -5   7   44.19    8.58
   2   5   7   37.28    4.71
   2   5   7   41.53    6.09
   2   5   8   53.89    7.00
  -2  -5  -8   51.82    7.05
   2  -5   8   42.07    7.99
   2   5   8   34.89    7.07
   2   5   8   51.36   11.31
   2   5   8   39.81    5.85
   2  -5   8   48.68    9.89
   2   5   8   35.43    6.18
   2  -5   9  198.16   14.98
   2   5   9  167.30   14.44
  -2  -5  -9  169.23   13.12
   2   5   9  170.19   13.51
   2   5   9  159.18   16.92
   2  -5   9  165.09   16.45
   2   5   9  178.30   13.54
   2   5  10  272.29   20.05
   2  -5  10  274.07   20.23
  -2  -5 -10  325.69   19.41
   2   5  10  309.26   24.24
   2   5  10  324.31   19.63
   2  -5  10  303.23   23.17
   2   5  10  311.29   19.58
   2   5  11  200.92   15.15
   2   5  11  194.67   19.90
   2  -5  11  179.37   19.01
   2   5  11  183.93   16.73
   2  -5  11  179.80   16.73
  -2  -5 -11  169.99   14.00
   2   5  12  233.14   17.36
   2   5  12  219.33   21.24
   2  -5  12  278.86   23.67
   2  -5  12  241.37   20.12
   2   5  12  267.99   20.87
   2   5  13  115.88   16.33
   2   5  13  132.38   12.80
   2  -5  13  153.23   18.41
   2  -5  13  113.36   15.69
   2   5  13  107.73   14.75
   2   5  14   -6.47    9.68
   2   5  14   17.78    6.13
   2  -5  14   28.06   11.94
   2   5  14   31.87   10.77
   2  -5  14   12.21    9.79
   2   5  15   35.08   11.47
   2   5  15   13.86    5.66
   2  -5  15   27.02   12.29
   2  -5  15   17.40    9.90
   2   5  15    2.11    8.89
   2   5  16   98.05   14.62
   2   5  16   87.84   11.17
   2  -5  16   79.60   16.24
   2   5  16   80.44   14.55
   2  -5  16   71.59   14.13
   2   5  17   58.76   13.50
   2   5  17   62.48    9.96
   2  -5  17   65.49   15.22
   2   5  17   91.53   15.16
   2   5  18  111.22   16.30
   2   5  18  120.33   13.32
   2  -5  18  139.10   19.66
   2   5  18   83.21   15.40
   2  -5  19   19.23   12.50
   2   5  19    6.86    9.77
   2   5  19    7.63   10.87
   2  -5  20   19.80   13.13
   2  -5  21   -3.39   12.38
  -2  -6  21   15.20   17.28
  -2   6  21   15.17    6.95
  -2  -6  20  -11.15   16.89
  -2   6  20    3.74    6.68
  -2   6  20   -8.60   14.31
  -2  -6  19  -14.48   16.69
  -2   6  19   14.61    6.68
  -2   6  19    2.86   12.63
  -2  -6  18  147.30   23.84
  -2   6  18  179.89   16.42
  -2   6  18  130.60   20.43
  -2  -6  17   50.85   18.39
  -2   6  17   67.90   10.57
  -2   6  17   22.47   13.43
  -2  -6  16    3.26   14.60
  -2   6  16   13.55    6.34
  -2   6  16    8.30   12.21
  -2  -6  15   93.56   18.89
  -2   6  15   82.08   10.94
  -2   6  15   78.77   16.38
  -2  -6  14  -11.83   11.97
  -2   6  14    1.59    5.11
  -2   6  14  -13.32   12.28
  -2  -6  13   -2.80   13.97
  -2   6  13   12.29    5.89
  -2   6  13   32.98    8.57
  -2   6  13    5.21   11.32
  -2   6  12    9.29    6.49
  -2   6  12   13.37    5.57
  -2  -6  12    2.63   12.48
  -2   6  12   13.36    7.14
  -2   6  11   -1.44    4.49
  -2   6  11   -3.55    5.53
  -2   6  11  -14.92   13.00
  -2  -6  11    4.90   12.95
  -2   6  11    4.57    5.44
   2   6 -11    1.87    9.23
  -2   6  10   72.62   10.83
  -2   6  10   60.76   15.42
  -2   6  10   65.37    9.13
  -2  -6  10   68.11   15.87
  -2   6  10   42.82    8.41
   2   6 -10   84.78   13.45
  -2   6   9  597.89   30.73
  -2   6   9  614.70   32.88
  -2   6   9  581.86   37.73
   2  -6  -9  578.45   29.98
  -2  -6   9  629.59   37.12
   2   6  -9  576.57   33.15
  -2   6   9  563.50   29.80
  -2   6   8  239.54   18.30
  -2   6   8  242.76   17.27
  -2  -6   8  254.07   22.69
   2   6  -8  245.89   19.48
   2  -6  -8  264.11   17.44
  -2   6   7  647.74   34.21
  -2   6   7  704.72   33.73
  -2  -6   7  680.99   36.93
   2   6  -7  642.26   34.31
  -2   6   6   12.64    5.51
  -2   6   6   24.73    5.66
  -2   6   6   18.32    6.28
  -2  -6   6   22.15    9.01
  -2   6   5  372.52   21.30
   2   6  -5  360.87   18.06
  -2  -6   5  366.50   22.53
  -2   6   5  357.29   20.64
   2   6  -4   25.88    5.48
  -2   6   4   29.14    5.53
  -2  -6   4   27.18    7.31
  -2   6   4   32.48    5.73
  -2   6   3   18.25    4.57
  -2   6   3   18.56    4.30
   2   6  -3    5.62    5.54
   2   6  -2   56.93    8.42
   2   6  -2   73.38    7.60
  -2   6   2   42.95    6.48
  -2   6   2   59.23    6.00
   2   6  -1   64.32    9.32
  -2   6   1   58.85    5.57
  -2   6   1   63.01    7.75
   2   6  -1   65.36    7.07
   2   6   0  105.86   11.85
  -2   6   0  101.85    7.18
  -2   6   0  104.35    8.85
   2   6   0  119.73    9.73
   2   6   1   -4.12    6.94
  -2   6  -1   -0.52    2.00
   2  -6   1    1.93    2.29
  -2   6  -1    5.52    5.80
   2   6   1   -0.98    3.06
   2  -6   2   89.98    6.72
   2   6   2   84.02   11.65
   2   6   2   80.53    8.69
   2   6   2   83.73    8.38
   2  -6   3   83.78    6.99
   2   6   3   65.80   10.95
   2   6   3   91.80    9.06
   2   6   3   75.74    8.32
   2   6   4  250.24   19.67
   2   6   4  247.26   16.42
   2   6   4  266.63   16.51
   2  -6   4  246.86   14.31
  -2  -6  -4  220.03   15.13
   2   6   5   66.28   11.93
   2   6   5   74.15    9.00
   2  -6   5   77.64    8.35
   2   6   5   80.03    8.88
  -2  -6  -5   86.77    8.84
   2   6   6   10.95    8.77
   2   6   6    3.90    4.54
   2  -6   6   12.16    5.39
   2   6   6   15.20    4.83
  -2  -6  -6    8.82    4.31
   2   6   7  167.88   17.60
   2   6   7  145.75   13.50
   2   6   7  160.18   12.94
   2  -6   7  151.05   13.46
  -2  -6  -7  150.13   12.35
   2   6   8   -1.98    9.90
   2   6   8    8.84    5.41
   2   6   8   22.74    5.85
   2  -6   8   17.48    7.63
  -2  -6  -8   16.81    4.98
   2   6   9  267.90   22.26
   2   6   9  215.41   15.85
   2  -6   9  233.90   18.67
  -2  -6  -9  197.72   15.46
   2   6  10   65.66    8.97
   2  -6  10   70.69   12.42
   2   6  11   50.45   13.05
   2   6  11   52.67    8.73
   2  -6  11   61.57   11.74
   2   6  12    6.77   10.55
   2   6  12    5.95    5.05
   2  -6  12    2.15    8.22
   2   6  13   62.44   14.52
   2   6  13   75.70   10.65
   2  -6  13   71.85   13.51
   2   6  14   35.47   12.50
   2   6  14   54.31    8.99
   2  -6  14   64.33   13.20
   2   6  15  291.21   20.79
   2  -6  15  291.11   25.68
   2   6  15  250.67   24.35
   2   6  16   24.45   11.37
   2   6  16   56.12    9.85
   2  -6  16   44.18   13.00
   2   6  17   59.10   12.92
   2   6  17   71.96   11.08
   2  -6  17   51.97   14.22
   2   6  18   72.03   13.81
   2   6  18   39.53    8.83
   2  -6  18   72.18   16.18
   2   6  19   -5.00    9.55
   2   6  19   12.86    6.73
   2   6  20   -2.50    9.54
   2   6  20   -3.75    6.03
   2  -6  20   -6.42   10.91
   2  -6  21  -13.19   12.33
  -2   7  20    3.07   13.11
  -2   7  20    3.94    6.87
  -2   7  19   12.25   13.72
  -2   7  19   13.53    6.75
  -2   7  18   24.36   15.41
  -2   7  18   26.63    8.30
  -2   7  17    3.01   13.88
  -2   7  17   26.09    7.58
  -2   7  16  124.59   19.94
  -2   7  16  145.41   15.16
  -2   7  15   55.34   15.66
  -2   7  15   47.57    9.17
  -2   7  14  154.40   21.36
  -2   7  14  142.47   14.50
  -2   7  14  131.84   15.85
  -2   7  13   -8.39   12.53
  -2   7  13    2.08    7.08
  -2   7  13   -5.01    5.37
  -2   7  12   90.27   17.06
  -2   7  12  113.12   12.25
  -2   7  12  106.45   13.79
  -2   7  11   29.36   13.36
  -2   7  11   46.18    9.67
  -2   7  11   25.21    6.59
  -2   7  10    5.21   12.68
  -2   7  10   -1.84    5.75
  -2   7  10   -3.07    4.48
  -2   7   9  304.43   27.16
  -2   7   9  309.49   20.54
  -2   7   9  267.29   21.05
  -2   7   8   17.30   13.23
  -2   7   8   20.38    7.65
  -2   7   8   30.16    7.20
  -2   7   7  110.79   18.53
  -2   7   7  111.15   12.64
  -2   7   7   88.90   10.44
  -2   7   6   18.78   13.19
  -2   7   6   -1.58    5.64
  -2   7   6   12.58    5.34
  -2   7   5    4.09    4.26
  -2   7   4   28.08    6.24
   2   7  -3    5.60    6.47
  -2   7   3    9.23    4.60
   2   7  -3    3.33    3.57
   2   7  -2   51.00    9.48
  -2   7   2   35.26    6.79
   2   7  -2   54.55    7.18
   2   7  -1  398.69   24.49
   2   7  -1  389.39   21.89
  -2   7   1  411.72   23.38
   2   7   0  412.07   25.71
  -2   7   0  427.29   24.00
   2   7   0  418.49   22.89
   2   7   1  407.52   25.37
   2   7   1  359.58   21.21
   2   7   2   93.94   13.47
   2   7   2   88.89    9.75
   2   7   2   76.66    8.83
   2   7   3   63.74   12.19
   2   7   3   93.37    9.92
   2   7   3   74.57    9.01
   2   7   4    1.86    9.63
   2   7   4    1.30    4.95
   2   7   4    5.09    4.66
   2   7   5  528.46   33.59
   2   7   5  564.22   30.22
   2   7   5  593.50   30.07
   2   7   6  197.43   19.97
   2   7   6  185.29   14.59
   2   7   6  162.20   14.57
  -2  -7  -6  179.63   14.17
   2   7   7  151.96   18.57
   2   7   7  192.96   14.94
   2   7   7  193.34   16.23
  -2  -7  -7  169.42   14.23
   2   7   8  295.67   25.66
   2   7   8  334.93   22.53
   2   7   8  360.94   22.07
   2   7   9  101.62   16.69
   2   7   9   78.48    9.88
   2   7   9   91.82   12.02
   2   7  10  155.71   19.36
   2   7  10  131.99   13.14
   2   7  11   26.36   11.37
   2   7  11   12.39    5.69
   2   7  12   56.47   14.12
   2   7  12   69.12    9.89
   2   7  13   35.14   12.53
   2   7  13    6.64    5.19
   2   7  14  202.22   22.04
   2   7  14  158.08   15.45
   2   7  15  -10.41   11.48
   2   7  15   -1.76    5.50
   2   7  16   15.82   11.44
   2   7  16    1.81    5.27
   2   7  17  157.15   19.95
   2   7  17  163.06   16.35
   2   7  18   21.35   12.48
   2   7  18   -1.90    5.34
   2   7  19    2.68   10.46
   2   7  19    3.87    6.22
   2   7  20   -2.69   11.09
  -2   8  18   16.05   13.94
  -2   8  18   18.05    7.52
  -2   8  17  158.74   22.83
  -2   8  17  138.17   15.60
  -2   8  16   -6.28   14.68
  -2   8  16   15.42    7.37
  -2   8  15  -15.41   15.38
  -2   8  15   11.32    6.41
  -2   8  14   -3.02   13.11
  -2   8  14    1.84    5.55
  -2   8  14    6.90    8.22
  -2   8  13  124.51   20.66
  -2   8  13  122.68   15.84
  -2   8  13  142.13   14.55
  -2   8  12   26.06   15.05
  -2   8  12   47.45   10.34
  -2   8  12   47.71    9.16
  -2   8  11  260.08   26.88
  -2   8  11  286.60   22.93
  -2   8  11  287.21   21.13
  -2   8  10   46.87   14.70
  -2   8  10   48.06   10.06
  -2   8  10   65.91    9.96
  -2   8   9   18.79   13.57
  -2   8   9   25.14    8.68
  -2   8   9   15.05    5.71
  -2   8   8   -5.22   11.87
  -2   8   8    1.86    5.81
  -2   8   8    1.67    4.70
  -2   8   7   35.56   13.64
  -2   8   7   37.87    8.54
  -2   8   7   40.65    7.83
  -2   8   6   29.61   13.96
  -2   8   6   54.17    9.37
  -2   8   6   43.88    7.88
  -2   8   5    2.39   11.35
  -2   8   5   -1.53    5.21
   2   8  -4   22.80    5.93
  -2   8   4   36.32    7.35
  -2   8   3   89.78   15.97
  -2   8   3   87.18   10.62
   2   8  -3   64.81    9.20
   2   8  -2  -11.30    8.88
  -2   8   2    4.33   11.94
   2   8  -2   -2.55    4.67
  -2   8   2   -1.49    5.18
   2   8  -1   -4.62   10.05
   2   8  -1    1.29    4.27
  -2   8   1   -1.48    4.62
   2   8   0   -8.29    9.67
   2   8   0   -2.61    4.67
  -2   8   0   -4.45    5.89
  -2   8  -1  275.09   18.98
   2   8   1  239.77   20.69
   2   8   1  245.69   17.46
   2   8   2   24.34   11.00
   2   8   2   45.11    8.18
   2   8   2   37.94    7.28
   2   8   3  489.88   32.76
   2   8   3  521.11   28.62
   2   8   3  538.67   28.70
   2   8   4    8.24   11.13
   2   8   4   14.53    6.62
   2   8   4   17.32    5.87
   2   8   5    4.29   11.59
   2   8   5   16.76    6.92
   2   8   5   -1.49    4.80
   2   8   6  312.30   25.33
   2   8   6  324.59   21.78
   2   8   6  281.84   19.91
   2   8   7   55.48    9.58
   2   8   7   54.87    8.55
   2   8   8   -2.38   10.82
   2   8   8    7.06    6.30
   2   8   8   -7.79    5.29
   2   8   9  225.05   22.99
   2   8   9  212.17   17.20
   2   8   9  210.06   18.74
   2   8  10    7.55   10.38
   2   8  10    1.64    4.62
   2   8  11  152.12   20.54
   2   8  11  175.09   15.68
   2   8  12    2.63   11.23
   2   8  12    6.95    5.59
   2   8  13   -2.68   11.64
   2   8  13    8.91    5.90
   2   8  14   24.54   12.77
   2   8  14   14.66    6.41
   2   8  15  -11.05   10.33
   2   8  15   -3.77    5.69
   2   8  16   39.12   13.14
   2   8  16   38.30    9.30
   2   8  17   -8.45   11.62
   2   8  17   -3.90    5.90
   2   8  18   -2.83   11.26
  -2   9  16   52.15   16.89
  -2   9  16   26.43    8.46
  -2   9  15  170.44   23.42
  -2   9  15  162.25   16.86
  -2   9  14   25.25   13.50
  -2   9  14   29.25    9.90
  -2   9  14   19.61    7.05
  -2   9  13   74.21   18.36
  -2   9  13   79.26   11.74
  -2   9  13   61.71   12.38
  -2   9  12   -3.03   13.96
  -2   9  12   11.52    7.63
  -2   9  12   20.86    7.55
  -2   9  11   56.17   16.56
  -2   9  11   60.18   11.93
  -2   9  11   48.61    9.40
  -2   9  10    6.47    7.53
  -2   9  10    3.70    5.00
  -2   9   9   19.67   12.20
  -2   9   9   12.57    7.13
  -2   9   9    9.14    5.53
  -2   9   8   -5.47   11.88
  -2   9   8    4.06    6.53
  -2   9   8    9.19    6.08
  -2   9   7   31.92   13.78
  -2   9   7   33.48    9.25
  -2   9   7   19.73    6.76
  -2   9   6   98.16   17.25
  -2   9   6   86.12   12.52
  -2   9   6   88.98   11.48
  -2   9   5   10.03   12.22
  -2   9   5   27.37    7.80
   2   9  -5   16.86    5.73
  -2   9   4   65.49   15.03
   2   9  -4   59.39    8.57
  -2   9   4   55.62    9.42
  -2   9   3   46.90   13.27
  -2   9   3   45.14    8.79
   2   9  -3   45.57    7.69
  -2   9   2  583.79   36.46
  -2   9   2  524.76   31.10
   2   9  -2  581.26   30.70
  -2   9   1    6.52    9.89
   2   9  -1   23.27    6.23
  -2   9   1   11.56    5.92
  -2   9   0  106.28   16.11
   2   9   0  149.30   16.24
  -2   9   0  156.30   14.70
   2   9   0  126.64   12.77
   2   9   1  215.02   20.29
   2   9   1  227.18   17.53
  -2   9  -1  236.47   18.48
   2   9   2   42.80   11.87
  -2   9  -2   47.65    8.62
   2   9   2   38.14    7.76
   2   9   3    2.14   11.05
   2   9   3   15.65    6.23
   2   9   4    2.23   10.69
   2   9   4    6.41    5.58
   2   9   4    1.62    5.52
   2   9   5   13.89   11.14
   2   9   5   16.71    6.79
   2   9   5   18.24    6.49
   2   9   6   -9.59   11.67
   2   9   6    3.49    6.08
   2   9   6    3.32    4.83
   2   9   7  300.00   21.36
   2   9   7  297.40   22.34
   2   9   7  274.88   25.76
   2   9   8    7.66   11.45
   2   9   8   36.20    9.07
   2   9   8   20.41    6.81
   2   9   9   65.38   15.59
   2   9   9   99.08   13.58
   2   9   9  102.87   12.28
   2   9  10  131.52   19.27
   2   9  10  172.79   17.62
   2   9  10  161.17   15.55
   2   9  11   82.10   17.24
   2   9  11   99.92   12.37
   2   9  12  139.26   20.33
   2   9  12  154.57   15.62
   2   9  13    8.49   11.46
   2   9  13    3.80    5.34
   2   9  14   14.41   11.67
   2   9  14   -3.89    7.27
   2   9  15    2.91   10.41
   2   9  15    1.99    5.80
   2   9  16   20.58   13.77
  -2  10  14   -6.48   14.30
  -2  10  14    2.56    8.93
  -2  10  13   41.40   15.33
  -2  10  13   37.58   10.74
  -2  10  13   20.53    7.90
  -2  10  12  -15.59   13.96
  -2  10  12    7.33    7.62
  -2  10  12    2.03    5.47
  -2  10  11    3.05   12.59
  -2  10  11    2.37    7.63
  -2  10  11   -2.01    6.06
  -2  10  10    2.98   14.15
  -2  10  10   -4.61    7.84
  -2  10  10   -1.98    4.89
  -2  10   9  163.01   21.62
  -2  10   9  206.12   18.33
  -2  10   9  170.55   17.76
  -2  10   8   73.68   16.20
  -2  10   8   45.86   10.53
  -2  10   8   58.02   10.29
  -2  10   7  336.56   30.02
  -2  10   7  335.45   25.31
  -2  10   7  367.49   25.41
  -2  10   6   42.94   14.27
  -2  10   6   53.83   10.58
  -2  10   6   40.25    8.98
  -2  10   5    5.21   11.66
  -2  10   5    2.02    7.04
  -2  10   5    9.40    6.04
  -2  10   4   12.63   11.32
  -2  10   4   18.62    6.83
  -2  10   3   12.21   10.78
  -2  10   3   11.04    5.57
   2  10  -3   12.55    5.75
  -2  10   2   21.23   11.79
  -2  10   2   25.59    7.56
   2  10  -2   12.73    5.72
  -2  10   1  112.92   13.66
   2  10  -1   97.95   11.90
   2  10   0    3.26    4.75
  -2  10   0   10.84    6.76
   2  10   1   46.46    8.68
  -2  10  -1   28.73    8.26
  -2  10  -2   19.73    7.93
   2  10   2   15.19    6.20
   2  10   3   -2.27   12.28
   2  10   3   -1.73    5.23
  -2  10  -3   -1.78    5.20
   2  10   4  303.81   21.75
   2  10   4  230.57   23.36
  -2  10  -4  284.29   21.29
   2  10   5    2.46   11.04
   2  10   5   21.63    7.71
   2  10   6   10.18   10.50
   2  10   6   12.61    6.45
   2  10   7    2.61   12.21
   2  10   7   21.91    7.55
   2  10   8  -10.73   12.71
   2  10   8    9.28    6.14
   2  10   9   19.26   12.69
   2  10   9    9.40    6.23
   2  10  10   30.82   13.49
   2  10  10   17.44    8.87
   2  10  10   28.70    8.35
   2  10  11   11.45   11.83
   2  10  11   25.21    8.03
   2  10  12   -8.71   11.32
   2  10  12   -1.98    5.97
   2  10  13   76.41   16.01
   2  10  13   54.40   10.28
  -2  11  12    7.69    8.94
  -2  11  11    9.33   14.57
  -2  11  11   32.53   11.06
  -2  11  10   -6.08   14.01
  -2  11  10   -2.44    8.28
  -2  11  10    2.12    5.49
  -2  11   9   11.88   13.34
  -2  11   9   28.53   10.03
  -2  11   9   42.27    9.66
  -2  11   8    2.90   12.41
  -2  11   8   25.51    9.75
  -2  11   8   19.21    8.17
  -2  11   7   42.39   15.45
  -2  11   7   52.04   11.21
  -2  11   7   19.36    7.58
  -2  11   6    8.26   11.97
  -2  11   6   13.23    7.11
  -2  11   6   27.06    8.60
  -2  11   5  537.67   38.74
  -2  11   5  613.91   36.31
  -2  11   5  586.42   35.01
  -2  11   4    2.60   10.32
  -2  11   4   -2.01    5.44
  -2  11   3  183.80   17.89
  -2  11   2   -1.98    5.58
  -2  11   1   21.65    7.55
  -2  11   0    5.87    6.29
   2  11   1    7.20    5.79
  -2  11  -1    5.81    6.75
   2  11   2   16.61    7.06
  -2  11  -2    7.71    6.02
   2  11   3   30.28    7.97
  -2  11  -3    9.59    6.54
   2  11   4   13.56    6.59
  -2  11  -4    9.53    6.14
   2  11   5   -5.12   13.22
   2  11   5    3.87    5.85
  -2  11  -5    5.69    5.12
   2  11   6   10.56   11.46
   2  11   6   15.57    7.44
  -2  11  -6    5.65    5.51
   2  11   7   -5.42   12.86
   2  11   8  -16.60   12.94
   2  11   8    1.98    5.98
   2  11   9   31.14   14.40
   2  11   9   58.34   10.19
   2  11  10   49.12   14.98
   2  11  10   26.49    7.86
   2  11  11   37.00    9.15
  -2  12   8   23.38   14.07
  -2  12   7    2.86   12.99
  -2  12   6   20.26    8.26
  -2  12   5   11.02    7.50
  -2  12   4    2.16    6.52
  -2  12   3   44.89    9.98
  -2  12   2   16.94    7.58
  -2  12   1   96.57   13.62
  -2  12   0    6.23    6.48
  -2  12  -1    2.06    6.00
  -2  12  -2   22.47    8.00
  -2  12  -3  101.21   13.57
   2  12   4   12.28    7.14
  -2  12  -4    4.02    5.86
   2  12   5   73.75   11.80
   2  12   6   16.51    7.90
   2  12   7    8.33    6.70
   2  12   7   16.45   13.00
  -3   0  24   26.29   19.04
  -3   0  23   17.19   17.41
  -3   0  23  -12.58   16.66
  -3   0  22  -16.82   18.55
  -3   0  22   -8.27   17.36
  -3   0  21   24.47   18.54
  -3   0  21    4.06   15.84
  -3   0  20  122.57   25.16
  -3   0  20  167.60   27.04
  -3   0  19   15.20   15.40
  -3   0  18   36.39   17.30
  -3   0  17    2.63   10.25
  -3   0  17   20.76   16.40
   3   0 -16   -4.00    6.06
   3   0 -16   -1.04    4.28
  -3   0  16    2.47   10.74
   3   0 -15   -0.97    4.74
   3   0 -15   -5.03    5.55
   3   0 -15   -1.69    7.67
  -3   0  15   11.61    9.91
   3   0 -15    4.10    9.58
   3   0 -14  431.19   22.58
   3   0 -14  478.40   25.27
  -3   0  14  432.73   30.50
   3   0 -14  467.63   27.68
   3   0 -14  463.20   29.59
   3   0 -13   -3.30    5.15
   3   0 -13    3.38    3.48
   3   0 -13    3.64    8.27
  -3   0  13    4.02    8.15
   3   0 -13   -4.53    5.76
  -3   0  13   -2.31    7.03
   3   0 -12  559.28   26.09
   3   0 -12  581.05   28.05
   3   0 -12  549.40   30.34
  -3   0  12  576.69   33.62
   3   0 -12  588.79   32.77
  -3   0  12  576.88   29.28
   3   0 -11    6.28    5.99
  -3   0  11   -1.70    6.20
   3   0 -11   -1.31    4.79
   3   0 -11    0.94    3.57
   3   0 -11    2.12    2.53
   3   0 -10 2216.71   87.99
  -3   0  10 2182.85   90.54
   3   0 -10 2264.24   90.24
   3   0 -10 2208.76   83.32
   3   0 -10 2249.14   85.24
   3   0  -9    3.90    5.36
  -3   0   9   -2.76    5.16
   3   0  -9   -2.19    4.09
   3   0  -9   -1.70    2.42
   3   0  -9    0.76    2.97
   3   0  -8   86.32    8.99
   3   0  -8  100.89   10.15
   3   0  -8   76.23    7.29
   3   0  -8   70.48    6.12
  -3   0   8   81.13    6.21
   3   0  -7   -0.86    3.50
   3   0  -7   -2.03    3.71
  -3   0   7    4.25    3.61
  -3   0   7    1.27    1.55
   3   0  -7   -0.59    2.50
   3   0  -7   -0.42    1.69
   3   0  -6 7926.10  292.20
   3   0  -6 8184.73  287.21
   3   0  -6 7948.84  285.93
  -3   0   6 8180.00  286.02
   3   0  -6 8001.11  289.42
   3   0  -6 8210.97  290.64
  -3   0   6 8161.48  290.94
   3   0  -5    3.63    3.08
   3   0  -5    2.18    2.89
  -3   0   5   -0.43    1.72
  -3   0   5   -0.29    1.27
   3   0  -5   -0.41    2.02
   3   0  -5   -0.63    2.78
  -3   0   5    1.48    3.00
  -3   0   5    0.84    3.28
   3   0  -5    0.58    1.35
  -3   0   4 4800.39  169.12
  -3   0   4 4836.49  168.02
   3   0  -4 4773.29  168.10
   3   0  -4 4593.06  172.33
   3   0  -4 4682.88  172.15
   3   0  -4 4596.13  171.13
  -3   0   4 4736.81  171.99
  -3   0   4 4726.38  171.30
   3   0  -3   -0.90    2.19
  -3   0   3    3.53    3.18
  -3   0   3    1.03    2.45
  -3   0   3    0.80    0.90
   3   0  -3    1.13    0.99
  -3   0   3    4.29    2.98
   3   0  -3   -0.54    2.54
   3   0  -3    0.56    2.27
   3   0  -2  417.49   17.81
  -3   0   2  407.75   18.19
  -3   0   2  407.44   18.14
   3   0  -2  426.25   17.47
  -3   0   2  437.04   17.89
  -3   0   1    0.29    0.68
   3   0  -1   -0.26    0.77
  -3   0   1    0.68    0.91
   3   0  -1    1.22    0.89
  -3   0   0   28.43    2.58
   3   0   0   27.82    2.53
   3   0   0   20.37    2.86
  -3   0   0   23.49    2.83
  -3   0  -1   -0.35    1.48
   3   0   1    1.85    1.55
  -3   0  -1    1.32    1.46
   3   0   1    1.39    1.24
  -3   0  -2 3510.56  125.31
   3   0   2 3510.61  126.01
  -3   0  -2 3410.24  126.09
   3   0   2 3580.32  125.96
  -3   0  -2 3495.64  126.03
  -3   0  -3   -0.76    2.57
   3   0   3   -0.36    2.17
  -3   0  -3    0.57    3.53
   3   0   3   -1.53    2.89
   3   0   3    1.47    2.48
  -3   0  -3    6.01    3.83
  -3   0  -4 3438.64  125.51
   3   0   4 3627.60  125.18
   3   0   4 3444.10  127.14
  -3   0  -4 3397.97  128.01
   3   0   4 3466.30  127.01
  -3   0  -4 3373.82  127.72
  -3   0  -5    0.53    2.75
   3   0   5   -1.64    3.50
  -3   0  -5   -6.80    5.87
   3   0   5   -1.40    1.85
   3   0   5    2.36    2.94
  -3   0  -5   -3.69    5.09
  -3   0  -6  101.41    7.78
   3   0   6   92.18    6.75
  -3   0  -6   99.63   10.73
   3   0   6  101.86    9.42
  -3   0  -6   86.68   10.57
   3   0   6  101.10    9.28
   3   0   7   -1.74    2.67
   3   0   7   -1.12    4.27
  -3   0  -7    1.38    5.99
  -3   0  -7   -2.86    4.02
  -3   0  -7    2.79    6.97
   3   0   7   12.79    5.21
  -3   0  -7   -1.86    2.31
   3   0   8  450.03   25.42
  -3   0  -8  432.76   21.40
  -3   0  -8  450.11   22.78
   3   0   8  471.35   21.36
  -3   0  -8  539.60   29.44
   3   0   8  453.72   25.72
  -3   0  -8  491.24   25.20
  -3   0  -9    0.76    2.46
   3   0   9   -1.39    2.96
   3   0   9   -1.44    5.02
  -3   0  -9   -0.92    5.10
  -3   0  -9   -1.79    7.64
   3   0   9   -4.52    6.42
  -3   0  -9    2.54    5.04
  -3   0 -10   93.83    8.21
   3   0  10   94.93    7.98
   3   0  10   65.56   10.24
  -3   0 -10   71.82    9.46
   3   0  10   73.65   11.45
  -3   0 -10   91.86   11.08
  -3   0 -11   -2.72    3.24
   3   0  11   -0.80    3.58
   3   0  11    1.76    7.24
  -3   0 -11   -1.11    6.31
   3   0  11   -7.36    7.98
  -3   0 -11    3.02    6.33
   3   0  12  619.97   35.74
   3   0  12  599.98   28.19
  -3   0 -12  645.56   29.40
  -3   0 -12  597.91   31.29
   3   0  12  585.40   35.66
  -3   0 -12  599.44   33.62
   3   0  13   -4.11    9.20
   3   0  13   -0.90    4.31
  -3   0 -13    2.68    8.85
   3   0  13  -10.76   10.06
  -3   0 -13    8.62    7.60
  -3   0 -13    2.08    3.81
   3   0  14    4.40   10.57
   3   0  14   -4.61   10.77
  -3   0 -14    9.14    8.31
  -3   0 -14   13.33    4.98
  -3   0 -15   -7.71   10.41
   3   0  15   -4.67   10.93
   3   0  15  -12.21   13.46
   3   0  16   79.05   15.43
   3   0  16   85.19   15.85
   3   0  17   10.40   10.13
   3   0  17   -2.71   12.31
   3   0  18  -10.88   11.61
   3   0  18   11.34   12.31
   3   0  19   -2.83   11.48
   3   0  19   -2.95   10.77
   3   0  20   -8.83   13.57
   3   0  20   36.58   13.44
   3   0  21   -3.04   12.08
   3   0  21    3.15   10.70
   3   0  22   28.16   14.11
   3   0  22   80.85   17.18
   3   0  23    3.20   12.98
   3   0  23    6.61   11.53
  -3  -1  24    8.84   17.22
  -3   1  24   12.81   17.30
  -3  -1  23   -4.16   18.33
  -3   1  23   12.53   17.83
  -3   1  23   16.82   19.39
  -3  -1  23    4.36   16.98
  -3  -1  22    8.20   18.64
  -3   1  22   24.70   17.29
  -3  -1  22   21.24   17.84
  -3   1  22   20.57   16.68
  -3   1  21   32.36   19.69
  -3  -1  21    8.07   16.64
  -3  -1  21    8.28   17.97
  -3   1  21   -7.99   16.17
  -3   1  20   31.73   16.69
  -3  -1  20   35.64   19.80
  -3  -1  20   40.04   19.77
  -3   1  20   30.93   18.12
  -3  -1  19   -7.73   17.31
  -3   1  19   -3.72   16.42
  -3   1  19    8.63   10.28
  -3   1  18    3.55   16.62
  -3  -1  18    7.40   14.70
  -3   1  18   -5.46   10.20
  -3   1  17   13.50   14.17
  -3  -1  17    3.52   14.53
   3  -1 -17    4.67    4.37
  -3   1  17    5.16   10.06
   3  -1 -16   22.07    5.66
   3   1 -16   34.44    7.17
   3  -1 -16   36.44    8.16
  -3   1  16   19.43   10.75
   3   1 -15  183.76   14.25
   3  -1 -15  176.76   14.87
   3   1 -15  152.32   12.15
   3  -1 -15  189.01   13.60
   3  -1 -15  164.75   15.74
  -3   1  15  155.14   18.61
   3   1 -15  201.42   19.37
   3   1 -14  406.07   20.73
   3  -1 -14  411.25   23.61
   3   1 -14  408.97   22.81
   3  -1 -14  403.14   21.41
   3   1 -14  396.43   26.07
  -3   1  14  329.33   26.84
   3   1 -14  405.52   27.51
   3  -1 -14  451.26   28.26
   3  -1 -14  433.75   25.36
  -3  -1  14  342.28   27.47
  -3   1  14  403.82   25.38
   3  -1 -13    2.75    3.58
   3   1 -13    1.04    4.68
   3   1 -13    9.57    3.79
   3  -1 -13   14.11    5.58
  -3   1  13   15.81    4.48
   3  -1 -13    5.39    7.54
   3   1 -13   25.63    8.00
  -3  -1  13    6.19    7.55
   3   1 -13   12.74    7.77
   3  -1 -13    7.10    5.76
  -3   1  13    9.81    7.80
  -3   1  13    7.36    8.75
   3  -1 -12   -0.85    2.81
   3   1 -12   -0.73    2.67
  -3   1  12    7.79    3.51
   3   1 -12    3.83    4.02
   3  -1 -12   -1.10    4.19
   3   1 -12    7.53    6.43
  -3  -1  12    3.82    6.65
  -3   1  12    3.61    6.75
   3  -1 -12   -3.34    6.11
   3  -1 -12   -3.98    5.47
   3   1 -12    6.79    6.48
  -3  -1  12   -3.21    5.12
   3   1 -11  673.81   34.74
   3  -1 -11  594.15   31.28
   3  -1 -11  661.22   34.31
  -3  -1  11  705.47   36.39
   3   1 -11  634.21   32.97
  -3   1  11  655.48   34.97
   3  -1 -11  624.48   30.29
   3  -1 -11  605.43   28.49
   3   1 -11  627.87   29.24
  -3   1  11  663.32   28.96
   3   1 -11  648.04   27.94
   3   1 -10  344.74   20.95
  -3  -1  10  408.88   24.35
  -3   1  10  277.69   20.00
   3  -1 -10  265.24   17.94
   3   1 -10  320.39   21.05
   3  -1 -10  286.35   20.18
   3  -1 -10  296.14   17.45
   3  -1 -10  302.91   16.25
   3   1 -10  329.94   17.31
  -3   1  10  295.52   16.07
   3   1 -10  347.35   16.20
   3  -1  -9    3.94    2.34
   3   1  -9    2.37    4.03
   3  -1  -9    6.37    5.44
   3   1  -9    3.90    4.87
  -3  -1   9    1.44    5.03
  -3   1   9    2.65    5.26
   3   1  -9   -1.03    2.20
   3   1  -9    2.08    2.86
   3  -1  -9    2.56    3.45
  -3   1   9    1.33    2.08
   3  -1  -8 2434.41   94.37
  -3  -1   8 2430.10   95.55
   3   1  -8 2294.88   93.96
  -3   1   8 2404.56   94.28
   3   1  -8 2497.74   93.95
   3  -1  -8 2389.98   91.04
  -3   1   8 2357.01   91.55
   3  -1  -8 2381.44   89.63
   3   1  -8 2440.70   89.81
   3   1  -8 2480.52   88.44
  -3   1   8 2412.87   89.84
   3   1  -7  598.92   28.48
  -3   1   7  597.16   28.63
  -3  -1   7  595.21   29.72
   3  -1  -7  591.88   28.68
   3   1  -7  585.06   28.88
  -3   1   7  656.60   25.73
  -3   1   7  578.98   26.73
   3  -1  -7  619.18   25.68
   3   1  -7  611.07   25.42
   3   1  -7  576.17   24.06
   3   1  -6   76.09    8.25
   3  -1  -6   78.95    8.25
   3   1  -6   69.95    5.25
  -3   1   6   62.33    6.01
   3  -1  -6   63.96    5.30
  -3   1   6   66.56    5.13
   3   1  -6   70.42    4.54
   3  -1  -6   65.03    6.88
   3   1  -6   62.83    6.92
  -3  -1   6   70.18    7.66
  -3   1   6   58.12    6.46
  -3   1   6   66.83    7.63
   3   1  -6   74.70    7.78
   3  -1  -5  618.33   29.14
   3   1  -5  609.12   29.10
   3  -1  -5  634.62   25.60
  -3   1   5  665.14   27.06
  -3   1   5  634.83   25.61
   3   1  -5  630.37   24.99
   3   1  -5  625.08   24.16
  -3   1   5  643.61   29.17
   3  -1  -5  629.40   27.99
  -3  -1   5  659.80   29.02
  -3   1   5  646.41   27.98
   3   1  -5  658.07   28.16
   3   1  -5  629.22   28.12
   3   1  -4  218.39    9.76
   3   1  -4  225.52    9.19
  -3   1   4  223.31   10.90
   3  -1  -4  222.64   10.64
   3  -1  -4  223.77   12.29
  -3  -1   4  243.69   13.24
  -3   1   4  232.45   13.05
  -3  -1   4  201.83   12.62
   3   1  -4  227.10   12.35
   3   1  -4  228.05   12.32
   3  -1  -4  247.66   13.29
   3   1  -4  219.73   12.94
   3  -1  -4  234.66   13.35
   3   1  -4  232.04   13.20
  -3   1   3   70.78    4.67
   3  -1  -3   74.58    4.87
  -3  -1   3   73.22    6.11
   3   1  -3   73.69    5.68
  -3  -1   3   70.85    6.13
   3   1  -3   73.44    5.71
  -3   1   3   78.55    6.34
  -3  -1   3   88.09    7.10
   3   1  -3   66.17    6.12
  -3   1   3   83.91    6.93
   3  -1  -3   67.25    6.10
  -3   1   3   69.92    6.76
   3   1  -3   63.69    6.21
   3  -1  -3   58.98    5.89
   3  -1  -3   63.82    5.49
  -3  -1   3   71.60    6.52
  -3   1   2 1235.16   44.51
  -3   1   2 1234.08   45.78
  -3  -1   2 1218.06   45.74
  -3   1   2 1215.33   45.59
   3   1  -2 1148.37   44.39
   3  -1  -2 1172.34   45.00
  -3  -1   2 1222.05   45.15
  -3  -1   2 1189.96   44.95
   3   1  -2 1148.74   45.10
   3  -1  -2 1188.60   45.10
  -3  -1   2 1209.88   45.84
  -3   1   2 1221.42   45.80
  -3  -1   1  152.49    7.45
   3   1  -1  142.26    6.78
  -3   1   1  161.96    7.92
  -3  -1   1  147.22    7.17
   3  -1  -1  167.40    7.84
  -3   1   1  160.21    8.69
   3   1  -1  135.65    7.39
   3  -1  -1  156.15    7.64
  -3  -1   1  159.99    7.93
  -3   1   1  133.23    7.55
   3  -1   0  112.76    6.79
  -3   1   0  105.90    6.33
  -3  -1   0   93.87    6.15
  -3  -1   0  103.98    4.87
   3   1   0   99.65    4.79
  -3  -1   0  111.30    6.18
   3   1   0   99.65    5.81
  -3   1   0   98.84    5.63
  -3  -1   0  107.09    5.77
   3   1   1  730.46   29.75
  -3   1  -1  779.46   30.01
  -3  -1  -1  765.40   29.49
   3  -1   1  783.19   30.15
   3   1   1  742.49   28.59
  -3  -1  -1  781.76   28.72
  -3  -1  -1  779.92   29.61
  -3   1  -1  771.37   29.57
   3   1   1  752.81   29.79
  -3  -1  -1  753.96   30.01
   3   1   2  404.74   17.74
  -3  -1  -2  401.51   18.13
   3   1   2  405.94   16.70
  -3  -1  -2  422.22   16.86
   3   1   2  412.83   17.29
   3  -1   2  423.68   18.04
  -3   1  -2  419.95   18.35
  -3  -1  -2  386.64   17.27
  -3  -1  -2  396.07   17.63
   3  -1   2  387.09   17.37
   3   1   2  396.49   17.36
  -3   1  -2  432.16   17.83
   3   1   3 2056.64   76.29
  -3  -1  -3 2105.08   76.42
   3   1   3 2007.33   76.95
  -3   1  -3 2107.24   78.76
   3  -1   3 2121.90   78.18
  -3  -1  -3 2053.15   77.62
  -3   1  -3 2079.94   77.96
  -3  -1  -3 2103.84   78.09
   3  -1   3 2144.22   77.53
   3   1   3 2156.26   77.53
  -3  -1  -3 2125.57   77.96
   3   1   3 2074.74   77.44
  -3  -1  -4  120.27    7.04
   3   1   4  108.19    6.70
   3  -1   4   96.10    7.93
   3   1   4  104.93    7.72
  -3  -1  -4  107.57    8.71
  -3   1  -4   95.19    9.37
  -3  -1  -4   87.85    8.47
   3  -1   4  122.27    8.17
  -3   1  -4   95.97    8.59
   3   1   4  116.39    8.00
   3   1   4   98.85    7.40
  -3   1  -4   88.88    6.03
  -3  -1  -4   96.24    7.96
  -3  -1  -5  327.37   18.63
   3  -1   5  343.68   17.64
   3   1   5  326.53   17.29
  -3   1  -5  339.05   18.85
  -3  -1  -5  342.91   15.71
  -3   1  -5  314.49   14.72
   3   1   5  333.94   16.56
  -3  -1  -5  317.31   17.25
   3  -1   5  315.55   17.89
   3   1   5  337.77   17.35
  -3   1  -5  378.54   20.44
  -3  -1  -5  319.70   18.53
  -3  -1  -5  328.16   16.70
  -3  -1  -6   29.43    3.92
   3  -1   6   16.03    4.68
  -3   1  -6   18.50    6.62
  -3  -1  -6   46.31    8.42
   3   1   6   20.86    5.09
   3   1   6   25.43    4.36
  -3  -1  -6   23.05    5.66
  -3   1  -6   29.76    3.66
   3   1   6   31.78    5.23
   3  -1   6   27.36    5.87
  -3   1  -6   36.58    8.16
  -3  -1  -6   18.07    6.53
  -3  -1  -6   22.09    4.77
   3   1   7 1079.60   47.34
   3  -1   7 1057.23   47.02
  -3  -1  -7 1110.53   43.92
  -3   1  -7 1069.11   42.80
   3   1   7 1075.67   44.61
  -3  -1  -7 1132.26   50.03
  -3   1  -7 1088.01   49.52
  -3  -1  -7 1047.87   45.76
  -3   1  -7 1138.93   50.56
   3   1   7 1063.67   46.92
   3  -1   7 1166.25   48.77
  -3  -1  -7 1131.89   49.57
  -3  -1  -7 1120.05   46.05
  -3  -1  -8   75.05    6.78
   3  -1   8   60.11    5.15
   3   1   8   59.97    8.53
   3  -1   8   57.12    8.31
  -3   1  -8   52.22    5.96
   3   1   8   44.60    6.27
  -3  -1  -8   77.60    8.90
  -3   1  -8   62.03   11.44
   3   1   8   82.57    9.39
  -3  -1  -8   76.73   11.10
   3  -1   8   58.82    8.72
  -3  -1  -8   54.28    7.71
   3  -1   9  186.05   15.39
   3   1   9  172.47   14.95
   3  -1   9  184.05   10.27
  -3   1  -9  180.71   11.79
   3   1   9  180.21   12.52
  -3  -1  -9  172.48   11.60
  -3  -1  -9  167.10   13.93
  -3  -1  -9  204.35   18.15
   3   1   9  190.93   15.50
   3  -1   9  158.87   15.36
  -3   1  -9  160.30   17.52
  -3  -1  -9  187.75   14.12
   3   1  10  269.78   20.39
   3  -1  10  276.83   20.37
  -3  -1 -10  314.21   16.99
   3  -1  10  305.24   14.82
   3   1  10  319.14   17.66
  -3  -1 -10  268.66   18.90
  -3   1 -10  270.70   16.19
   3   1  10  296.20   20.84
   3  -1  10  282.46   21.56
  -3   1 -10  259.50   19.78
  -3  -1 -10  298.59   19.41
  -3  -1 -11    3.80    3.92
   3  -1  11    1.83    2.78
   3  -1  11   -5.24    7.58
   3   1  11    1.75    8.19
   3   1  11   -1.02    4.91
  -3   1 -11    9.09    6.13
  -3  -1 -11    8.03    7.52
   3   1  11   -1.75    7.61
   3  -1  11   -1.91    8.00
  -3   1 -11   -1.61    7.00
  -3  -1 -11    1.40    6.46
  -3  -1 -12    1.02    3.46
  -3   1 -12    0.94    3.10
   3  -1  12    1.96    2.88
   3   1  12   -1.08    4.83
  -3  -1 -12   -1.46    8.75
  -3   1 -12    4.00    6.62
   3   1  12    5.71    7.85
   3  -1  12   -5.70    8.12
   3   1  12    1.91    8.93
   3  -1  12   -6.20    9.25
  -3  -1 -12    3.02    6.45
  -3   1 -12   -1.73    7.85
  -3  -1 -13   15.20    5.03
  -3   1 -13   20.09    5.09
   3   1  13    4.10    9.86
   3  -1  13   36.88   11.19
   3   1  13    6.75    5.21
   3   1  13    8.25   10.30
   3  -1  13    6.67   10.26
  -3  -1 -13   11.28    6.89
  -3   1 -13    7.34    8.82
   3   1  14  227.98   21.29
   3   1  14  187.13   15.16
  -3   1 -14  216.90   14.76
  -3  -1 -14  191.14   14.49
   3  -1  14  195.15   20.45
   3   1  14  174.65   19.80
   3  -1  14  227.92   22.57
  -3  -1 -14  222.37   18.39
  -3   1 -14  205.28   19.80
  -3  -1 -15  548.19   31.95
   3   1  15  517.31   27.67
   3  -1  15  582.30   37.36
   3   1  15  496.58   34.75
   3   1  15  461.17   33.18
   3  -1  15  506.00   34.38
   3  -1  16   24.67   12.54
   3   1  16   66.49   14.81
   3  -1  16   55.89   15.31
   3   1  16   27.31   11.53
   3  -1  17   10.38   11.08
   3   1  17   12.94   11.06
   3  -1  17   13.94   11.71
   3   1  17   20.92   12.74
   3   1  18   56.91   14.71
   3  -1  18   54.31   14.27
   3   1  18   32.77   12.31
   3  -1  18   32.08   12.33
   3  -1  19    8.49   12.09
   3   1  19    8.46   11.64
   3   1  19   42.68   13.86
   3  -1  19    9.08   11.33
   3   1  20   23.39   13.03
   3  -1  20   55.82   15.65
   3   1  20   85.42   16.66
   3  -1  20   72.02   16.66
   3   1  21   18.16   12.73
   3  -1  21   15.18   12.99
   3   1  21   27.34   12.78
   3  -1  21   35.56   14.71
   3  -1  22    6.24   13.10
   3   1  22  -15.56   13.06
   3  -1  22   19.90   12.92
   3   1  22    3.13   11.16
   3  -1  23    6.39   12.71
   3   1  23   -9.56   14.27
   3   1  23   19.19   11.95
   3  -1  23   16.95   13.48
  -3   2  24    4.13   16.73
  -3   2  23    4.10   15.64
  -3  -2  23    8.15   16.51
  -3  -2  23  -17.46   19.84
  -3   2  23   -4.07   17.38
  -3  -2  22  104.58   23.97
  -3   2  22   48.43   18.47
  -3   2  22   43.68   18.17
  -3  -2  22   72.54   21.91
  -3  -2  21   15.83   18.76
  -3   2  21    3.96   16.05
  -3  -2  21   -4.16   17.48
  -3   2  21   -3.87   15.66
  -3   2  20   14.86   11.58
  -3   2  20   -3.88   17.66
  -3  -2  20   38.84   21.19
  -3  -2  20    8.07   18.86
  -3   2  20    3.75   16.53
  -3   2  19   32.41   16.85
  -3  -2  19   31.22   18.26
  -3   2  19   11.32   11.27
  -3   2  18  189.57   25.36
  -3  -2  18  157.13   25.83
  -3   2  18  137.18   18.84
  -3   2  17   29.46   15.74
  -3  -2  17   32.21   16.75
  -3   2  17   15.27   10.34
  -3   2  16  242.27   16.44
   3  -2 -16  199.06   15.46
  -3   2  16  231.49   20.95
  -3  -2  16  224.31   27.59
  -3   2  16  215.43   21.85
   3  -2 -15   -1.15    4.19
   3  -2 -15   -1.41    5.93
  -3   2  15    1.16    3.94
  -3   2  15   -2.24    8.55
  -3   2  15    1.81   10.28
   3   2 -14  539.78   25.62
  -3   2  14  484.08   26.74
   3  -2 -14  566.75   29.53
   3  -2 -14  637.41   28.68
   3  -2 -14  549.85   32.69
   3   2 -14  508.13   31.47
  -3   2  14  548.71   33.89
  -3   2  14  502.29   31.91
   3  -2 -13   66.01    7.85
  -3   2  13   83.32   13.85
   3  -2 -13   55.66    8.36
  -3   2  13   66.23    7.50
   3   2 -13   66.25    7.28
  -3   2  13   42.44   10.21
   3  -2 -13   47.14   10.14
   3   2 -13   84.95   12.40
   3  -2 -12   20.52    4.93
   3  -2 -12    7.14    5.13
  -3   2  12    5.83    3.54
  -3   2  12   19.44    7.82
   3  -2 -12   16.23    7.30
   3  -2 -11   61.43    7.14
   3  -2 -11   69.03   10.10
   3   2 -11   73.64   10.77
  -3   2  11   64.14    9.69
   3   2 -11   63.03    6.25
  -3   2  11   56.23    6.80
  -3  -2  10  151.36    8.75
  -3   2  10  159.09   10.74
   3   2 -10  160.67    9.34
  -3   2  10  124.45   11.18
   3  -2 -10  137.41   10.26
   3   2 -10  127.20   12.71
  -3   2  10  140.89   13.11
  -3  -2  10  139.61   14.63
   3  -2 -10  157.59   13.46
   3  -2  -9  467.65   21.76
  -3   2   9  430.29   21.39
  -3   2   9  426.15   23.23
  -3  -2   9  448.49   26.44
   3   2  -9  443.89   25.08
  -3   2   9  486.83   25.46
   3  -2  -9  441.24   24.60
  -3   2   8  142.35   10.54
   3  -2  -8  103.56    8.11
  -3   2   8  114.29    8.45
  -3  -2   8  113.31   11.73
   3   2  -8  122.63   11.27
   3  -2  -8  102.45   10.11
  -3   2   8  113.67   10.46
   3  -2  -7  183.31   13.85
   3  -2  -7  174.10   10.40
  -3   2   7  151.90   11.14
  -3   2   7  183.39   10.67
   3   2  -7  164.26   12.59
  -3   2   7  153.41   11.61
   3  -2  -7  158.27   11.85
  -3  -2   7  167.07   13.36
   3  -2  -6   67.31    8.09
   3   2  -6   74.44    8.25
   3  -2  -6   94.94    6.82
  -3   2   6   76.00    7.13
  -3   2   6   91.13    6.63
   3   2  -6   83.41    7.94
  -3  -2   6   66.52    8.16
   3  -2  -6   69.19    7.12
  -3   2   6   79.75    8.37
   3   2  -6   74.76    8.00
  -3   2   5  759.97   31.42
  -3  -2   5  779.49   28.45
   3  -2  -5  748.61   31.13
   3   2  -5  796.52   33.59
  -3   2   5  735.14   33.79
   3  -2  -5  780.42   32.65
  -3  -2   5  781.68   34.13
   3   2  -5  712.81   32.39
   3  -2  -5  729.60   33.12
   3  -2  -5  771.30   33.73
   3   2  -5  792.43   34.07
   3  -2  -4    0.50    1.64
  -3  -2   4    1.16    1.47
  -3   2   4    0.51    1.44
   3   2  -4    4.01    2.93
  -3  -2   4    3.67    3.48
   3   2  -4    0.66    2.72
   3   2  -4   -1.35    2.58
   3  -2  -4    3.26    2.64
   3  -2  -4   -1.16    2.07
   3   2  -4   -0.71    2.35
   3  -2  -4   -0.68    2.62
  -3   2   4    2.91    2.05
  -3   2   3  433.94   19.36
  -3  -2   3  453.63   17.99
  -3   2   3  472.27   20.81
   3  -2  -3  460.65   19.46
   3  -2  -3  461.13   19.85
   3   2  -3  427.80   19.88
  -3  -2   3  468.57   20.71
   3   2  -3  413.82   19.58
  -3  -2   3  433.41   20.18
   3   2  -3  437.11   18.93
  -3   2   3  434.19   20.04
   3   2  -3  438.17   19.57
   3  -2  -3  433.90   19.45
   3   2  -2 1190.78   43.48
   3   2  -2 1232.02   44.37
  -3  -2   2 1150.79   44.64
   3  -2  -2 1206.67   45.17
  -3   2   2 1198.60   45.77
  -3  -2   2 1145.80   45.55
  -3   2   2 1214.44   45.71
  -3   2   2 1132.65   45.65
   3   2  -2 1225.90   44.08
   3   2  -2 1203.49   45.06
  -3  -2   2 1169.48   44.73
  -3  -2   2 1209.12   45.55
   3   2  -2 1154.78   44.79
  -3  -2   2 1154.96   45.63
   3  -2  -2 1237.34   44.90
  -3   2   2 1225.71   45.84
  -3  -2   1   22.08    2.75
  -3   2   1   23.34    2.64
   3   2  -1   22.40    1.93
   3   2  -1   17.33    2.00
   3   2  -1   18.70    3.13
   3   2  -1   17.72    1.63
  -3   2   1   17.21    2.50
  -3  -2   1   23.82    3.97
   3  -2  -1   19.84    3.61
  -3   2   1   22.71    3.46
   3  -2  -1   19.54    2.28
   3   2  -1   21.23    2.29
   3   2  -1   18.01    2.34
  -3  -2   1   21.49    2.16
  -3  -2   1   21.94    3.07
  -3  -2   0 3159.65  116.64
   3   2   0 3173.67  118.09
  -3  -2   0 3262.33  118.71
  -3  -2   0 3357.70  115.58
  -3  -2   0 3193.04  117.58
  -3   2   0 3315.21  117.72
   3  -2   0 3302.64  118.37
  -3  -2   0 3253.40  116.35
   3   2   0 3264.66  116.73
  -3  -2   0 3224.87  116.94
  -3   2   0 3358.05  116.95
   3   2   1  237.36   12.67
  -3  -2  -1  244.80   13.18
  -3  -2  -1  233.65   11.14
  -3  -2  -1  235.42   11.15
   3   2   1  257.46   11.24
   3  -2   1  266.92   12.13
  -3  -2  -1  250.10   11.06
   3   2   1  228.57   11.53
  -3   2  -1  223.44   11.82
  -3  -2  -1  247.23   11.36
  -3   2  -1  247.84   11.27
  -3  -2  -2  494.66   23.30
   3   2   2  484.22   22.45
   3   2   2  508.35   20.95
  -3  -2  -2  519.98   21.16
  -3  -2  -2  514.68   21.36
   3   2   2  474.03   20.44
   3  -2   2  515.50   21.81
  -3  -2  -2  517.81   20.62
  -3   2  -2  527.00   22.57
  -3   2  -2  500.66   21.25
   3  -2   2  528.85   21.10
  -3  -2  -2  518.81   21.43
   3   2   2  490.04   20.91
  -3  -2  -3  212.33   12.11
   3  -2   3  222.33   11.41
  -3   2  -3  222.11   12.24
   3   2   3  214.67   11.30
  -3  -2  -3  216.77   11.13
   3   2   3  227.35   11.25
  -3  -2  -3  217.56   11.62
   3   2   3  219.13   12.66
  -3  -2  -3  239.44   13.83
   3   2   3  211.51   10.73
  -3  -2  -3  216.92   11.50
   3  -2   3  237.71   12.52
  -3   2  -3  231.35   13.44
  -3  -2  -3  211.45    9.87
   3  -2   4    1.81    2.31
   3   2   4    1.82    2.42
  -3  -2  -4    7.34    2.49
  -3  -2  -4    5.51    2.75
   3   2   4    7.39    2.30
  -3  -2  -4   -0.76    4.13
  -3   2  -4    2.27    4.00
   3   2   4   16.12    4.19
  -3  -2  -4    3.42    4.85
   3  -2   4    2.29    2.80
   3   2   4    5.41    2.52
  -3  -2  -4    7.31    4.15
  -3   2  -4   10.24    5.43
  -3  -2  -4    8.98    2.57
   3  -2   5   88.85    7.46
   3   2   5   69.95    6.84
  -3  -2  -5   97.50    7.64
  -3  -2  -5   81.48    6.40
   3   2   5   71.95    6.11
   3   2   5   79.69    7.68
  -3   2  -5   70.35    8.55
  -3  -2  -5   69.62    8.20
  -3  -2  -5   69.33    8.43
   3   2   5   67.36    6.33
  -3   2  -5   75.40    9.59
  -3  -2  -5   60.20    7.58
   3  -2   5   77.91    7.94
  -3  -2  -5   83.04    6.39
  -3  -2  -6    6.40    3.19
   3   2   6    6.65    2.44
  -3  -2  -6    5.24    2.35
  -3   2  -6    4.73    2.04
   3   2   6    9.24    4.32
  -3  -2  -6    7.15    5.80
  -3   2  -6   15.50    7.02
   3  -2   6    1.83    3.12
   3   2   6    8.31    4.08
  -3  -2  -6    1.04    4.82
  -3  -2  -6    5.39    6.01
   3  -2   6    3.30    4.20
   3   2   6   10.49    3.93
  -3   2  -6    6.77    7.16
  -3  -2  -6   13.46    3.53
   3  -2   7  550.60   28.49
   3   2   7  568.95   28.85
  -3  -2  -7  586.04   26.33
  -3  -2  -7  605.33   27.74
   3   2   7  608.61   26.68
  -3   2  -7  602.33   24.16
   3   2   7  618.29   28.61
  -3  -2  -7  555.40   31.35
  -3   2  -7  552.32   31.16
  -3  -2  -7  551.88   29.10
  -3   2  -7  613.47   32.69
  -3  -2  -7  550.68   30.21
   3   2   7  580.82   28.20
   3  -2   7  570.03   30.10
  -3  -2  -7  622.15   27.33
   3   2   8  174.80   14.39
   3  -2   8  228.95   15.93
   3   2   8  217.99   14.60
  -3   2  -8  207.71   10.87
  -3  -2  -8  193.54   12.38
  -3  -2  -8  196.15   13.58
   3   2   8  191.05   12.38
  -3  -2  -8  210.62   16.10
   3  -2   8  194.02   16.17
   3   2   8  208.34   14.97
  -3  -2  -8  205.19   16.99
  -3   2  -8  165.20   17.70
  -3  -2  -8  196.58   13.36
   3  -2   9  341.63   20.94
   3   2   9  288.10   19.99
  -3   2  -9  284.53   14.67
   3   2   9  304.70   18.64
  -3  -2  -9  288.53   17.87
  -3  -2  -9  296.69   16.64
   3   2   9  287.53   16.59
  -3  -2  -9  314.42   20.65
  -3   2  -9  277.84   23.40
   3  -2   9  338.92   22.15
   3   2   9  278.50   19.04
  -3  -2  -9  295.82   17.84
   3   2  10  396.33   25.41
   3  -2  10  396.39   25.39
   3   2  10  388.21   21.14
  -3  -2 -10  442.42   21.92
  -3  -2 -10  413.96   23.14
   3   2  10  414.74   23.38
  -3   2 -10  440.17   20.20
  -3  -2 -10  395.83   25.34
   3  -2  10  405.59   26.90
   3   2  10  432.70   25.49
  -3  -2 -10  417.15   23.22
  -3  -2 -11   23.85    6.23
  -3  -2 -11   26.96    5.16
  -3  -2 -11   36.84   11.47
   3   2  11   12.60    6.18
  -3   2 -11   23.15    5.57
   3   2  11   15.59    8.25
   3  -2  11   12.06    7.75
   3   2  11   28.07    9.57
   3  -2  11   29.39   10.16
  -3   2 -11   22.48    8.56
  -3  -2 -11   15.16    5.79
  -3  -2 -12   18.78    6.55
  -3  -2 -12   28.71    5.52
   3  -2  12    3.76    8.56
   3   2  12   11.30    8.57
   3   2  12   15.77    6.66
   3   2  12   10.83    8.92
   3  -2  12   12.76   10.75
  -3  -2 -12    5.47    5.24
  -3   2 -12   16.54    8.96
   3   2  13  365.67   25.92
   3  -2  13  354.84   25.83
  -3  -2 -13  344.77   21.69
  -3  -2 -13  314.56   19.32
   3   2  13  289.42   24.00
   3  -2  13  264.92   25.19
  -3   2 -13  333.94   24.76
  -3  -2 -13  301.78   21.33
   3   2  13  349.00   21.65
   3  -2  14  341.27   26.14
   3   2  14  292.93   25.32
   3   2  14  284.60   20.78
  -3  -2 -14  327.44   19.83
   3  -2  14  319.29   27.43
   3   2  14  359.24   27.10
  -3   2 -14  281.05   24.00
  -3  -2 -14  326.99   22.18
   3   2  15   82.86   15.46
   3  -2  15  105.65   17.72
   3   2  15  101.40   12.00
   3   2  15   66.85   15.07
   3  -2  15   43.90   13.03
   3   2  16   75.90   14.55
   3  -2  16   48.92   14.28
   3   2  16   86.06   11.27
   3   2  16   65.78   14.19
   3  -2  16   83.16   14.74
   3   2  17    2.49    9.32
   3  -2  17  -17.11   12.58
   3   2  17   10.25    9.78
   3  -2  17    5.15   10.61
   3   2  18  253.21   24.05
   3  -2  18  270.37   26.32
   3  -2  18  212.70   23.16
   3   2  18  200.69   23.04
   3   2  19   21.70   11.02
   3  -2  19   24.73   13.44
   3  -2  19   16.84   11.81
   3   2  19   30.64   12.69
   3   2  20    2.81   10.03
   3  -2  20    6.38   11.93
   3  -2  20   -5.82   12.22
   3   2  20    5.78   11.70
   3   2  21   17.42   11.31
   3  -2  21    6.57   12.01
   3   2  21   -2.98   11.86
   3  -2  21   -3.00   12.17
   3   2  22   74.49   16.48
   3  -2  22   87.56   19.48
   3   2  22   88.82   17.43
   3  -2  22   64.82   15.82
   3  -2  23    3.44   12.59
   3   2  23    9.14   12.56
   3  -2  23   15.83   13.05
   3   2  23  -15.71   13.41
  -3  -3  23  -13.04   18.25
  -3   3  23   -3.95   17.15
  -3  -3  23   11.87   16.31
  -3  -3  22    8.51   17.56
  -3  -3  22  -11.71   16.10
  -3   3  22  -11.67   16.05
  -3   3  21   44.24   18.08
  -3  -3  21   62.51   21.90
  -3   3  21   84.00   20.52
  -3  -3  21   42.26   19.30
  -3   3  21   82.73   16.52
  -3  -3  20  121.29   24.66
  -3   3  20   92.94   21.33
  -3   3  20   78.45   20.69
  -3  -3  20  131.90   23.40
  -3   3  20   96.80   17.77
  -3  -3  19   85.87   21.85
  -3   3  19   72.22   19.66
  -3  -3  19   73.77   20.26
  -3   3  19   94.82   21.40
  -3   3  19   44.75   14.16
  -3   3  18  160.43   14.06
  -3   3  18  194.66   26.13
  -3  -3  18  146.91   25.47
  -3   3  18  119.84   17.92
  -3   3  17   28.94    7.06
  -3  -3  17   57.70   18.68
  -3   3  17   21.97   15.32
  -3   3  17   40.30   12.00
  -3   3  17   38.68   11.90
  -3   3  16    3.98    4.75
  -3   3  16    2.12   10.33
  -3  -3  16   17.21   17.99
  -3   3  16   28.34   10.57
  -3   3  16    8.89   14.60
  -3   3  15    1.27    4.18
   3  -3 -15    1.22    4.47
  -3   3  15    2.09   11.31
  -3  -3  15   19.54   15.64
  -3   3  15   -2.22    9.14
  -3   3  14   98.85   10.67
   3  -3 -14  132.33   11.78
   3  -3 -14  116.61   14.04
  -3   3  14  105.41   16.78
  -3  -3  14  248.32   29.30
   3   3 -14  272.28   21.45
  -3   3  14  102.98   14.58
   3  -3 -13   -2.20    4.37
   3  -3 -13   -1.68    6.15
  -3   3  13   10.25   11.64
   3   3 -13    7.40    3.60
  -3   3  13    1.15    4.00
  -3   3  13   -1.90    6.78
   3   3 -13    8.98    7.14
   3  -3 -12  419.67   22.42
  -3   3  12  424.69   22.64
   3   3 -12  405.72   26.31
  -3   3  12  385.38   25.89
   3  -3 -12  433.66   25.99
   3  -3 -11    7.85    3.75
  -3   3  11    6.76    4.95
  -3   3  11    1.02    3.65
  -3   3  11   12.55    5.87
   3   3 -11    4.78    5.96
   3  -3 -11   17.32    6.46
   3  -3 -10  129.82   10.36
  -3   3  10  134.05   12.09
  -3   3  10  147.20   11.06
  -3   3  10  147.47   13.27
   3   3 -10  112.87   12.58
   3  -3 -10  152.34   13.02
   3  -3  -9   42.39    5.76
  -3   3   9   46.91    7.09
  -3   3   9   47.99    6.10
  -3   3   9   26.23    6.15
   3   3  -9   34.28    7.90
   3  -3  -9   33.30    6.29
  -3   3   8   16.18    3.79
   3  -3  -8   25.96    4.46
  -3   3   8   27.21    5.23
   3   3  -8   25.07    6.60
  -3   3   8   30.86    5.89
   3  -3  -8   19.01    4.73
   3  -3  -8   41.87    7.81
   3  -3  -7   38.85    5.09
  -3   3   7   38.19    5.07
  -3   3   7   29.25    5.33
   3   3  -7   43.10    7.32
  -3   3   7   20.32    5.71
   3  -3  -7   23.89    5.85
   3   3  -7   27.70    6.11
   3  -3  -7   36.19    5.62
   3  -3  -6   48.02    5.50
  -3  -3   6   55.82    3.98
  -3   3   6   55.03    5.99
   3  -3  -6   46.98    6.64
   3   3  -6   56.03    7.08
   3  -3  -6   57.13    6.26
  -3   3   6   55.39    6.60
  -3   3   6   59.68    7.64
   3   3  -6   40.31    6.78
   3  -3  -5   10.21    2.89
  -3   3   5   11.46    2.98
   3   3  -5   19.41    4.38
  -3   3   5   12.13    3.51
   3  -3  -5   17.06    4.03
   3  -3  -5    9.63    3.11
  -3  -3   5   10.11    2.64
   3   3  -5   14.84    3.68
   3   3  -5    5.27    3.65
   3  -3  -5   16.11    3.90
   3   3  -5   14.30    3.89
   3   3  -4  105.35    5.59
  -3   3   4   93.44    7.33
  -3  -3   4   99.54    6.52
  -3   3   4  101.65    8.10
   3   3  -4   90.78    6.99
   3   3  -4   79.27    7.84
   3  -3  -4   87.43    7.01
   3   3  -4   95.49    7.31
   3  -3  -4  106.23    7.23
   3   3  -4   87.08    7.19
   3  -3  -4   91.97    7.26
  -3  -3   3  173.37    9.84
   3   3  -3  175.80    8.88
  -3   3   3  177.50   10.60
   3  -3  -3  186.91    9.78
  -3   3   3  169.23   10.78
   3   3  -3  172.14    9.05
   3   3  -3  176.22   10.74
  -3   3   3  176.27   10.61
   3   3  -3  174.21    9.61
   3  -3  -3  162.24    9.18
   3   3  -2   40.98    4.46
   3   3  -2   33.11    2.79
   3   3  -2   47.88    4.30
   3   3  -2   38.34    3.56
  -3   3   2   36.31    4.40
  -3  -3   2   34.46    4.00
  -3   3   2   39.14    4.28
  -3   3   2   42.43    4.24
   3  -3  -2   39.14    3.69
  -3   3   2   47.67    4.31
  -3  -3   2   36.51    4.91
   3  -3  -2   45.66    3.52
   3   3  -2   38.95    3.35
   3   3  -2   38.05    3.40
   3  -3  -2   41.89    3.49
  -3  -3   2   32.65    3.94
  -3   3   2   36.56    4.08
   3   3  -1   42.59    3.81
   3   3  -1   38.25    3.65
   3   3  -1   50.69    4.93
  -3   3   1   39.67    3.94
  -3  -3   1   33.58    5.36
   3  -3  -1   39.26    4.29
  -3   3   1   40.66    3.92
   3   3  -1   46.71    3.41
   3  -3  -1   39.98    3.26
  -3   3   1   41.68    3.70
  -3  -3   1   43.88    3.75
  -3  -3   0 1155.71   42.92
   3   3   0 1101.78   44.38
   3   3   0 1079.55   42.63
  -3  -3   0 1209.38   42.08
  -3  -3   0 1081.48   45.25
  -3   3   0 1123.22   42.75
   3  -3   0 1072.51   43.23
  -3  -3   0 1063.19   42.15
   3   3   0 1105.68   42.29
  -3   3   0 1123.89   41.84
  -3  -3   0 1154.00   41.85
  -3   3   0 1148.22   41.76
  -3  -3   0 1088.25   41.86
  -3  -3  -1   44.02    4.25
   3   3   1   40.21    4.15
   3   3   1   45.98    4.29
  -3  -3  -1   29.33    6.23
   3  -3   1   46.22    4.34
   3   3   1   58.10    6.11
  -3  -3  -1   46.75    3.45
  -3   3  -1   46.01    4.76
  -3   3  -1   47.27    3.85
  -3  -3  -1   48.28    3.51
  -3  -3  -1   49.30    3.96
   3   3   2  953.86   39.94
  -3  -3  -2  918.57   37.32
   3   3   2  971.52   37.79
   3   3   2  963.73   37.55
  -3  -3  -2  940.81   40.69
   3   3   2  937.15   36.23
   3  -3   2  958.79   37.71
  -3  -3  -2  925.30   35.67
  -3   3  -2  954.91   38.74
   3  -3   2  947.10   36.51
   3   3   2  909.12   36.36
  -3  -3  -2  971.55   37.18
  -3   3  -2  985.76   37.02
   3  -3   3  589.11   25.17
  -3  -3  -3  593.58   26.50
   3   3   3  595.55   25.20
  -3   3  -3  618.27   26.51
   3   3   3  625.43   28.71
  -3  -3  -3  643.50   26.58
   3   3   3  598.91   25.99
  -3  -3  -3  606.68   26.07
  -3  -3  -3  579.38   29.04
   3   3   3  642.70   24.40
   3  -3   3  620.35   26.85
  -3   3  -3  580.70   28.02
  -3  -3  -3  593.01   25.09
   3   3   3  630.28   23.37
  -3   3  -4 1545.86   61.25
   3   3   4 1541.86   59.11
  -3  -3  -4 1560.02   61.15
   3  -3   4 1587.75   59.20
   3   3   4 1573.62   62.53
  -3  -3  -4 1538.89   60.02
   3   3   4 1610.31   59.83
  -3  -3  -4 1587.20   59.92
   3   3   4 1521.29   57.63
  -3  -3  -4 1547.48   63.40
   3  -3   4 1496.99   60.82
  -3   3  -4 1541.80   63.06
  -3  -3  -4 1512.60   59.64
   3   3   4 1547.07   57.43
  -3   3  -5 2857.20  108.90
   3   3   5 2867.30  106.20
   3  -3   5 2921.45  106.22
  -3  -3  -5 2769.39  108.52
   3   3   5 2839.64  105.97
  -3  -3  -5 2913.38  106.78
  -3  -3  -5 2929.44  106.26
   3   3   5 2788.91  108.81
  -3  -3  -5 2817.63  110.08
  -3  -3  -5 2787.20  107.12
   3  -3   5 2925.98  108.37
   3   3   5 2820.01  104.49
  -3   3  -5 2870.41  110.89
   3   3   5 2864.36  104.46
  -3  -3  -6   21.58    4.51
   3   3   6   14.52    3.58
  -3  -3  -6   19.13    4.01
   3  -3   6   21.68    4.43
  -3  -3  -6   23.64    7.73
  -3   3  -6   27.64    8.10
   3   3   6   19.33    4.64
   3   3   6   13.80    5.26
  -3  -3  -6   29.57    8.23
  -3  -3  -6   29.74    7.00
   3  -3   6    9.00    4.93
  -3   3  -6   27.78    9.35
   3   3   6   14.99    3.77
  -3  -3  -6   19.39    3.44
  -3  -3  -7   -0.95    3.40
   3   3   7   -0.83    2.34
  -3  -3  -7   -0.82    2.79
   3  -3   7   -2.07    3.86
   3   3   7    7.33    4.83
  -3  -3  -7   -4.18    7.28
   3   3   7    2.45    5.32
   3   3   7    2.54    3.62
   3  -3   7    3.90    4.86
  -3   3  -7   11.65    9.27
  -3  -3  -7    3.62    6.78
  -3  -3  -7    2.54    2.57
  -3  -3  -8   32.29    6.06
   3   3   8   49.46    6.15
  -3  -3  -8   53.95    6.36
  -3   3  -8   45.53    4.17
   3   3   8   40.06    7.31
   3  -3   8   45.48    7.51
  -3  -3  -8   40.71    9.67
   3   3   8   49.48    8.27
   3   3   8   44.80    6.73
   3  -3   8   36.86    7.61
  -3   3  -8   55.69   12.38
  -3  -3  -8   44.51    5.67
  -3  -3  -9   21.46    5.63
   3   3   9   14.48    4.20
  -3  -3  -9   24.60    4.96
   3   3   9   17.93    7.01
   3  -3   9   17.67    6.41
  -3  -3  -9   42.42   11.04
   3   3   9   28.69    7.42
  -3   3  -9   25.79    3.67
   3  -3   9   24.77    7.76
   3   3   9   36.82    7.04
  -3  -3  -9   23.54    4.87
  -3   3  -9   22.33   11.65
   3   3  10   46.58    6.56
  -3  -3 -10   29.19    6.53
  -3  -3 -10   35.22    5.83
   3  -3  10   33.46    8.54
   3   3  10   43.09    9.28
   3   3  10   22.95    7.42
   3  -3  10   61.89   10.87
   3   3  10   32.50    8.12
  -3  -3 -10   20.70    5.34
   3  -3  11  399.70   25.78
   3   3  11  326.44   24.18
  -3  -3 -11  354.88   20.94
  -3  -3 -11  411.42   23.42
   3   3  11  395.72   21.86
   3   3  11  402.34   24.52
   3  -3  11  422.27   28.05
  -3  -3 -11  398.29   21.92
   3   3  11  381.89   24.09
   3  -3  12  225.44   20.09
   3   3  12  256.23   21.13
  -3  -3 -12  282.55   18.91
   3   3  12  255.15   16.79
  -3  -3 -12  252.28   16.61
   3   3  12  239.56   19.10
   3   3  12  265.31   20.39
   3  -3  12  258.63   22.73
  -3   3 -12  255.37   21.82
   3   3  13   87.31    9.62
  -3  -3 -13  123.17   12.48
  -3  -3 -13   74.39    9.46
   3   3  13  100.45   12.67
   3  -3  13   85.24   14.54
   3   3  13  117.22   15.60
   3   3  13   88.97   13.31
   3  -3  13  115.69   16.76
  -3   3 -13   92.25   14.84
   3   3  14   46.94   11.55
   3  -3  14   46.86   13.35
   3   3  14   25.50   10.65
   3  -3  14    8.51   11.53
   3   3  14   24.62    8.82
   3  -3  15   96.68   16.79
   3   3  15   73.16   13.54
   3  -3  15   74.80   14.53
   3   3  15  106.19   16.01
   3   3  15   74.09   12.01
   3  -3  16   41.31   12.21
   3   3  16   37.69   11.27
   3   3  16   50.10   12.81
   3  -3  16   28.80   11.13
   3   3  16   29.23    8.67
   3   3  17   18.71    9.34
   3  -3  17   34.63   12.35
   3  -3  17   32.82   13.08
   3   3  17   25.03   11.90
   3   3  17   26.26    8.57
   3   3  18  172.79   20.96
   3  -3  18  185.15   21.35
   3   3  18  163.78   19.88
   3  -3  18  204.34   23.44
   3   3  19  100.67   18.11
   3  -3  19  118.37   18.81
   3  -3  19  143.58   20.93
   3   3  19  124.83   17.81
   3  -3  20  260.11   26.47
   3   3  20  256.59   25.87
   3  -3  20  251.31   27.36
   3  -3  21   26.51   14.16
   3   3  21    2.91   11.11
   3  -3  21   29.45   12.79
   3  -3  22    6.80   11.85
   3  -3  22  -18.14   13.95
   3   3  22  -11.93   14.33
   3   3  23   -3.06   12.83
   3  -3  23  -12.39   14.49
  -3  -4  23    7.59   16.46
  -3   4  23  -11.22   16.74
   3   4 -23    4.01   12.51
   3  -4 -23    3.89   12.86
  -3  -4  22   29.53   18.60
  -3   4  22  -22.08   16.48
  -3  -4  22   -3.75   16.26
   3  -4 -22   18.90   13.50
  -3  -4  21   98.94   22.69
  -3   4  21   72.14   18.68
  -3  -4  21  118.07   23.02
  -3   4  21   75.52   16.42
  -3   4  20   17.63   17.17
  -3  -4  20   14.47   16.44
  -3  -4  20   -4.01   15.64
  -3   4  20    2.90   10.35
  -3   4  20    9.81    5.70
  -3   4  19    6.87   14.67
  -3  -4  19    3.54   14.84
  -3   4  19   -1.59    5.11
  -3  -4  19    3.90   16.08
  -3   4  19    2.77    9.43
  -3  -4  18   17.26   14.99
  -3   4  18   10.82    5.92
  -3  -4  18   15.04   16.06
  -3   4  18   26.37   10.69
  -3   4  18   -4.89   11.43
  -3   4  17   38.81    7.68
  -3  -4  17   72.24   20.93
  -3   4  17   34.83   12.19
  -3   4  17   43.52   13.13
  -3   4  16  134.97   12.75
  -3  -4  16  110.79   21.31
  -3   4  16  123.12   19.71
  -3   4  16  112.70   15.87
  -3   4  16  100.30   17.06
  -3   4  15   33.21    7.07
  -3   4  15   42.42   14.39
  -3  -4  15   26.33   15.21
  -3   4  15   21.96   10.04
  -3   4  14   -1.33    4.27
   3  -4 -14    1.72    5.52
  -3   4  14    2.32   12.15
  -3  -4  14   12.44   15.52
  -3   4  14    6.12    7.95
  -3   4  13    1.27    4.19
   3  -4 -13   -2.38    4.45
   3  -4 -13    1.61    6.13
  -3   4  13    9.20   12.15
  -3  -4  13   -5.85   15.11
  -3   4  13   -1.88    7.02
   3   4 -13   -5.64    7.33
   3  -4 -12   41.79    8.41
   3  -4 -12   36.50    6.60
  -3   4  12   34.75    8.45
  -3   4  12   32.59    6.09
  -3   4  12   56.50    9.80
   3   4 -12   30.28    9.20
   3  -4 -11   38.49    7.51
   3  -4 -11   34.74    6.21
  -3   4  11   25.36    6.88
  -3   4  11   38.07    6.46
  -3   4  11   32.54    7.91
   3   4 -11   23.51    8.95
   3  -4 -10   96.44   12.91
   3  -4 -10  115.27   10.15
  -3   4  10  106.56   11.43
  -3   4  10  124.87   10.73
   3  -4 -10  122.50   11.37
  -3   4  10  152.14   13.26
   3   4 -10  116.08   13.91
   3  -4  -9    1.13    3.52
   3   4  -9    7.56    5.40
   3  -4  -9   12.13    6.26
   3  -4  -9   12.80    4.27
  -3   4   9    1.06    2.97
  -3   4   9    6.59    4.59
  -3   4   9    2.50    4.25
   3   4  -9    1.45    6.40
   3   4  -8   27.62    6.70
   3  -4  -8   19.69    6.45
   3  -4  -8   41.26    6.32
  -3   4   8   51.86    6.72
   3  -4  -8   37.60    5.64
  -3   4   8   47.03    6.88
   3   4  -8   45.37    8.49
   3  -4  -7  349.97   19.84
   3   4  -7  293.30   18.95
   3  -4  -7  335.04   18.23
  -3   4   7  333.14   19.88
  -3   4   7  362.88   19.33
   3  -4  -7  317.70   18.04
   3   4  -7  345.58   20.63
  -3   4   7  348.14   20.97
  -3   4   6  301.67   16.99
   3  -4  -6  293.85   16.56
   3  -4  -6  309.96   16.89
   3   4  -6  282.45   16.56
  -3   4   6  302.38   18.54
   3   4  -6  285.90   17.94
   3  -4  -6  324.66   16.45
   3  -4  -6  274.94   16.51
   3   4  -6  271.18   16.70
  -3   4   5   -0.87    2.16
   3   4  -5   -0.32    1.78
   3  -4  -5   -2.21    3.15
  -3   4   5   -1.99    2.90
   3   4  -5   -0.78    2.85
   3  -4  -5    0.67    1.80
   3   4  -5    1.47    2.92
   3  -4  -5    0.70    2.71
   3   4  -5    2.90    4.64
  -3   4   4  576.32   27.61
   3   4  -4  608.47   24.75
   3   4  -4  621.27   26.27
   3  -4  -4  630.65   26.06
  -3  -4   4  643.34   26.89
   3   4  -4  610.65   25.99
   3  -4  -4  591.01   25.49
   3   4  -4  557.59   27.63
  -3   4   4  597.89   27.82
   3   4  -4  599.92   25.65
  -3   4   3  246.11   14.18
   3   4  -3  220.85   12.25
   3  -4  -3  254.02   12.28
  -3  -4   3  233.55   13.92
  -3   4   3  263.32   12.51
   3  -4  -3  247.59   11.45
   3   4  -3  229.34   11.40
   3   4  -3  221.39   11.05
   3   4  -3  218.92   13.30
  -3   4   3  214.99   13.01
   3   4  -2  184.73   11.07
   3   4  -2  184.46   10.40
  -3   4   2  190.86   12.02
  -3   4   2  206.00   11.13
  -3  -4   2  190.38   10.46
  -3   4   2  191.27   10.49
  -3  -4   2  199.12   12.74
  -3   4   2  191.23    9.77
   3   4  -2  172.64    7.93
   3   4  -2  177.82   10.74
   3  -4  -2  196.37    9.09
   3   4  -2  174.76    8.83
  -3  -4   1  313.39   17.95
  -3   4   1  335.55   14.55
   3  -4  -1  281.58   15.04
  -3   4   1  295.25   14.94
  -3   4   1  338.68   14.35
  -3  -4   1  324.80   14.32
   3   4  -1  307.12   15.23
   3   4  -1  341.83   16.94
  -3  -4   1  305.01   14.29
  -3   4   1  310.43   14.22
  -3  -4   0  567.04   23.50
  -3   4   0  603.46   23.56
   3   4   0  571.34   25.08
   3   4   0  607.42   25.71
   3   4   0  613.17   27.60
  -3   4   0  610.68   25.08
  -3  -4   0  584.23   23.71
   3  -4   0  607.09   25.38
  -3  -4   0  551.57   28.44
  -3   4   0  607.35   24.93
  -3  -4   0  624.34   23.56
  -3   4   0  600.04   23.31
   3   4   1 1991.09   76.57
  -3  -4  -1 1907.97   73.75
   3   4   1 1965.98   73.63
   3   4   1 1938.11   73.88
  -3  -4  -1 1911.19   77.56
  -3  -4  -1 1973.79   70.42
   3  -4   1 1930.70   72.97
  -3   4  -1 1979.52   73.88
  -3  -4  -1 1981.44   71.17
  -3   4  -1 1967.59   71.10
  -3   4  -1 1975.29   71.59
  -3  -4  -1 1932.66   71.68
  -3   4  -2  355.48   17.15
  -3  -4  -2  385.18   17.48
   3   4   2  372.07   20.73
  -3  -4  -2  410.71   18.61
   3   4   2  388.87   18.57
   3   4   2  407.85   18.94
  -3  -4  -2  382.11   22.09
   3  -4   2  388.19   17.77
  -3  -4  -2  375.75   15.53
  -3   4  -2  396.22   19.54
  -3  -4  -2  363.84   14.98
  -3   4  -3  258.30   14.28
   3  -4   3  263.64   12.49
   3   4   3  263.66   12.45
  -3  -4  -3  244.50   14.02
  -3  -4  -3  251.84   14.05
   3   4   3  250.27   16.56
   3   4   3  274.75   14.76
   3   4   3  269.36   14.34
   3   4   3  271.94   12.01
  -3  -4  -3  289.04   18.74
   3  -4   3  257.79   14.02
  -3  -4  -3  251.78   12.45
  -3   4  -3  241.89   16.14
   3   4   3  240.42   10.89
  -3  -4  -3  248.57   12.15
   3   4   4  775.94   31.73
  -3   4  -4  757.02   34.54
   3  -4   4  795.27   31.78
  -3  -4  -4  769.22   34.40
   3   4   4  775.25   34.08
   3   4   4  752.27   33.29
  -3  -4  -4  797.87   33.54
   3   4   4  799.15   37.08
  -3  -4  -4  779.91   38.15
   3   4   4  800.50   30.33
  -3  -4  -4  762.51   32.32
   3  -4   4  789.49   34.01
  -3   4  -4  777.37   36.85
   3   4   4  770.53   30.33
   3   4   5  260.60   14.44
   3  -4   5  277.22   14.49
   3   4   5  285.77   15.50
  -3  -4  -5  252.22   14.95
   3   4   5  263.87   18.20
  -3   4  -5  317.47   18.56
  -3  -4  -5  292.85   18.14
  -3  -4  -5  241.08   19.29
   3   4   5  267.21   12.75
  -3   4  -5  262.71   19.20
  -3  -4  -5  256.81   15.40
   3  -4   5  284.58   16.73
   3   4   5  263.35   13.34
   3   4   6  256.67   14.65
   3  -4   6  247.53   14.23
  -3  -4  -6  235.00   14.81
   3   4   6  227.20   14.07
  -3  -4  -6  242.88   14.49
   3   4   6  239.59   17.50
  -3  -4  -6  248.66   19.32
  -3   4  -6  233.59   19.07
   3  -4   6  218.60   15.62
   3   4   6  204.84   12.10
   3   4   6  249.25   13.25
   3   4   7   83.58    7.95
  -3  -4  -7   83.39    8.56
  -3  -4  -7   53.63    6.87
   3  -4   7   71.75    8.15
   3   4   7   72.01    7.92
   3   4   7   89.85   11.35
   3  -4   7   70.37    9.59
  -3   4  -7  109.74   14.69
   3   4   7   63.59    6.68
   3   4   7   73.62    7.56
   3   4   8   45.25    6.26
  -3  -4  -8   35.59    6.50
  -3  -4  -8   41.27    6.31
   3  -4   8   41.31    6.92
   3   4   8   35.31    7.06
   3   4   8   30.40    9.19
   3  -4   8   23.62    7.03
   3   4   8   32.41    5.90
   3   4   8   38.73    6.37
   3   4   9  321.08   20.03
   3  -4   9  264.12   18.98
  -3  -4  -9  294.46   18.11
  -3  -4  -9  307.18   19.10
   3   4   9  298.15   18.05
   3   4   9  297.01   17.89
   3  -4   9  318.44   22.06
   3   4   9  319.43   18.56
   3   4   9  310.96   21.92
   3   4  10  800.95   40.16
   3  -4  10  844.03   40.75
  -3  -4 -10  827.40   37.98
  -3  -4 -10  896.57   39.75
   3   4  10  804.51   37.80
   3   4  10  823.33   41.53
   3  -4  10  780.29   42.18
   3   4  10  799.52   38.28
   3   4  10  838.26   38.63
  -3  -4 -11  157.71   13.55
   3   4  11  144.86   12.34
  -3  -4 -11  137.56   12.14
   3   4  11  144.00   15.21
   3  -4  11  143.41   16.36
   3   4  11  143.04   13.68
   3  -4  11  120.16   13.88
   3   4  11  135.95   14.88
   3   4  12  307.80   23.00
  -3  -4 -12  303.79   21.19
  -3  -4 -12  330.36   20.46
   3   4  12  337.14   20.57
   3   4  12  349.84   22.43
   3  -4  12  360.11   26.66
   3   4  12  303.58   23.08
   3  -4  12  344.75   24.10
   3   4  13  111.54   11.64
   3   4  13  128.93   14.38
   3  -4  13  139.16   18.11
   3   4  13  124.21   16.04
   3  -4  13  101.09   14.41
   3   4  13  129.14   15.05
   3   4  14   76.19    9.73
   3   4  14   72.72   12.37
   3   4  14   69.13   12.10
   3  -4  14   96.46   16.69
   3  -4  14   88.24   14.38
   3   4  14   69.54   13.23
   3   4  15  209.59   16.22
   3   4  15  184.90   18.27
   3  -4  15  256.76   23.84
   3  -4  15  192.85   19.66
   3   4  15  197.81   20.32
   3   4  16   -1.50    5.10
   3  -4  16   13.77   10.73
   3  -4  16   -4.65    9.06
   3   4  16   -4.59    9.47
   3   4  16   -3.89    7.11
   3  -4  17   51.93   13.26
   3  -4  17   53.89   14.04
   3   4  17   55.49   13.44
   3   4  17   65.22   12.20
   3  -4  18   -3.01   11.49
   3   4  18    2.51    9.99
   3  -4  18   -5.12   11.80
   3   4  18   -4.01    8.26
   3  -4  19   12.48   12.64
   3  -4  19    2.67   11.21
   3   4  19   18.32   11.90
   3  -4  20   -3.22   10.95
   3   4  20   -5.41   11.15
   3  -4  20    2.77   10.99
   3  -4  21   66.20   16.60
   3   4  21   33.48   13.51
   3  -4  21   51.42   14.86
   3  -4  22   16.95   13.48
   3   4  22  -11.43   12.20
   3  -4  22    2.93   11.40
  -3   5  22    1.81    5.99
  -3  -5  22    4.13   16.72
  -3   5  21   -1.78    5.72
   3   5 -21   10.75   12.18
  -3  -5  21   -8.10   16.70
  -3   5  20   -3.50    6.09
  -3  -5  20   -3.95   16.00
   3   5 -20   13.76   12.29
  -3   5  19    2.71   12.15
  -3   5  19   11.98    6.80
  -3  -5  19   11.56   15.32
  -3   5  19   -3.17   13.32
  -3   5  18    5.39   12.96
  -3   5  18   -1.66    5.64
  -3  -5  18   11.17   14.51
  -3   5  18   15.38   15.16
  -3   5  17   47.61   16.48
  -3  -5  17   47.60   17.39
  -3   5  17   64.46    9.87
  -3   5  17   40.04   14.21
  -3  -5  17   53.80   18.19
  -3   5  17   27.18   11.51
  -3   5  16   63.05   17.57
  -3  -5  16  168.92   24.11
  -3   5  16   98.60   11.99
  -3   5  16  105.44   18.42
   3  -5 -16  145.81   19.19
  -3  -5  16  109.98   21.76
  -3   5  16  112.06   16.71
  -3   5  15   34.80    7.18
  -3   5  15   18.18   12.54
   3  -5 -15   56.63   12.90
  -3  -5  15   39.34   17.18
  -3   5  15   32.76    9.71
  -3   5  14   10.20    5.10
  -3   5  14   23.02   13.38
   3  -5 -14    4.78    9.14
  -3  -5  14   34.23   16.09
  -3   5  14   26.36    8.81
  -3   5  13   53.24    8.32
  -3   5  13   65.00   11.07
  -3   5  13   90.76   16.90
   3  -5 -13   45.49    8.97
   3   5 -13   45.57   12.11
   3  -5 -13   52.78   12.15
  -3  -5  13   67.79   17.90
  -3   5  13   50.26   10.44
  -3   5  12    8.62    6.17
  -3   5  12   14.80    5.26
   3  -5 -12    8.01    8.84
   3  -5 -12   14.09    5.72
   3   5 -12   27.57    9.96
  -3   5  12   22.41   14.53
  -3  -5  12   41.43   16.82
  -3   5  12   10.22    6.24
   3   5 -12    5.57    8.45
   3  -5 -11   32.50    6.13
  -3   5  11   18.12    5.48
  -3   5  11   24.52    7.36
   3   5 -11   42.46    9.68
   3  -5 -11   15.52    6.01
   3  -5 -11   16.22    7.98
  -3  -5  11   -2.57   13.17
  -3   5  11   18.61    6.77
   3   5 -11   24.50    9.38
   3  -5 -10  129.61   13.31
   3   5 -10  140.05   13.89
   3  -5 -10   93.22   10.00
   3  -5 -10  112.22   10.82
  -3   5  10   89.84   11.30
  -3   5  10  116.35   11.08
  -3   5  10  134.76   12.52
   3   5 -10   96.91   13.51
  -3  -5  10  133.14   19.83
   3   5  -9  154.91   13.90
   3  -5  -9  174.88   14.81
   3  -5  -9  154.80   12.38
  -3   5   9  179.74   13.52
  -3   5   9  148.53   13.90
  -3   5   9  131.11   12.39
   3  -5  -9  148.04   12.03
   3   5  -9  201.73   17.03
  -3   5   8  104.61   10.84
  -3   5   8   91.04    9.37
   3   5  -8   70.90    9.17
   3  -5  -8   73.28    9.07
   3  -5  -8   78.16    8.03
   3  -5  -8   82.55    8.72
   3   5  -8   62.74    8.34
   3   5  -8   86.35   11.11
  -3   5   7  340.17   20.49
  -3   5   7  323.54   19.03
   3  -5  -7  331.62   18.64
   3   5  -7  301.61   17.71
   3  -5  -7  306.89   17.68
   3   5  -7  306.57   20.47
  -3   5   7  293.18   20.05
   3  -5  -7  317.87   17.24
   3   5  -7  330.76   18.67
   3  -5  -7  284.80   17.79
  -3   5   6    2.17    3.04
   3   5  -6    6.88    2.53
   3  -5  -6    5.22    2.40
   3   5  -6   -0.86    2.99
   3  -5  -6    3.28    2.93
   3   5  -6    4.82    3.49
   3  -5  -6    3.07    3.05
   3   5  -6    1.17    5.64
  -3   5   6   -1.22    4.15
   3   5  -5    2.10    4.41
  -3   5   5   -1.04    2.69
   3   5  -5   -0.48    2.76
   3  -5  -5   -0.65    2.28
  -3   5   5    2.12    3.51
  -3   5   5    1.74    2.52
   3   5  -5    0.65    2.41
   3  -5  -5   -0.60    2.57
   3   5  -5   -2.75    3.08
   3  -5  -5   -2.56    3.46
  -3   5   4  154.08   11.45
   3   5  -4  140.51    9.23
   3  -5  -4  143.42    8.96
  -3   5   4  154.80    8.89
   3   5  -4  131.17   11.10
  -3   5   4  130.93   10.41
   3   5  -4  133.96    8.62
   3  -5  -4  129.15    7.99
   3   5  -4  141.42    8.44
   3   5  -3   31.63    3.22
   3   5  -3   34.04    3.52
   3   5  -3   34.52    4.63
  -3   5   3   33.85    5.44
  -3   5   3   29.71    4.78
   3   5  -3   35.08    5.20
  -3   5   3   31.39    3.71
   3  -5  -3   29.33    3.10
   3   5  -3   37.58    3.40
  -3   5   2 1002.60   37.83
   3   5  -2  975.22   40.25
  -3   5   2  938.99   42.32
   3   5  -2  958.76   40.98
   3   5  -2  984.56   36.78
   3  -5  -2  986.50   36.91
  -3   5   2  976.05   39.97
   3   5  -1  290.01   17.43
   3   5  -1  316.06   16.44
  -3   5   1  309.26   15.61
  -3  -5   1  304.88   14.29
  -3   5   1  324.26   14.43
  -3   5   1  331.42   14.86
  -3   5   1  323.79   13.21
  -3  -5   1  302.33   13.25
  -3  -5   0   69.77    4.64
  -3   5   0   75.01    4.68
   3   5   0   68.61    6.67
  -3   5   0   69.26    5.86
  -3  -5   0   61.88    4.64
   3  -5   0   86.66    6.59
  -3  -5   0   71.99    4.51
   3   5   0   85.08    8.92
  -3   5   0   69.23    6.36
  -3  -5   0   62.48    4.66
  -3   5   0   77.49    4.86
   3   5   1  232.03   13.42
   3   5   1  226.12   15.85
   3   5   1  230.12   13.61
  -3  -5  -1  234.03   10.55
  -3   5  -1  247.18   10.63
   3  -5   1  243.68   12.71
  -3   5  -1  224.94   13.75
  -3   5  -1  226.01   10.36
  -3  -5  -1  221.28   11.29
  -3   5  -1  237.84   11.44
   3   5   2   16.13    3.94
  -3  -5  -2   15.05    3.72
   3   5   2   21.71    4.23
  -3   5  -2   21.34    4.65
  -3  -5  -2   22.62    4.56
   3   5   2    8.55    5.18
   3  -5   2   20.24    3.51
  -3   5  -2   21.16    6.21
  -3  -5  -2   21.79    2.45
  -3   5  -2   23.56    2.49
  -3  -5  -3  669.54   29.80
  -3   5  -3  643.17   29.75
   3   5   3  715.06   31.22
   3   5   3  720.84   31.18
  -3  -5  -3  698.56   30.77
   3   5   3  709.79   34.28
   3  -5   3  726.67   29.78
  -3   5  -3  692.84   33.05
  -3  -5  -3  647.23   25.79
   3  -5   4    4.86    2.49
   3   5   4    7.88    2.66
   3   5   4    5.83    3.55
   3   5   4    2.74    3.10
  -3  -5  -4    0.88    3.14
  -3  -5  -4    4.27    2.38
   3   5   4    4.21    6.66
   3   5   4    3.29    2.07
  -3   5  -4    6.52    7.26
   3  -5   4    0.81    3.30
   3   5   4    5.11    2.37
   3  -5   5   -0.59    2.69
   3   5   5    0.60    2.64
   3   5   5   -1.91    3.25
  -3  -5  -5   -0.93    3.46
   3   5   5   -2.12    4.13
   3   5   5   -2.98    7.25
   3   5   5    1.43    1.87
  -3   5  -5    3.00    8.82
   3  -5   5   -3.84    4.49
   3   5   5   -0.48    2.56
   3  -5   6  313.88   16.31
   3   5   6  329.08   16.55
  -3  -5  -6  323.86   18.14
   3   5   6  334.95   22.28
   3   5   6  309.94   18.91
   3   5   6  327.36   18.26
   3   5   6  291.61   14.05
  -3   5  -6  298.22   22.88
   3  -5   6  294.69   18.54
   3   5   6  284.12   15.28
   3   5   7   81.30    8.36
   3  -5   7   91.80    8.57
  -3  -5  -7   93.38    9.09
   3   5   7   98.62    9.23
   3   5   7   74.39   11.81
   3  -5   7   77.01   10.00
  -3   5  -7  111.59   15.60
   3   5   7  101.75    7.21
   3   5   7   85.96    8.07
   3   5   8  651.21   32.06
  -3  -5  -8  685.29   32.36
   3   5   8  620.04   35.95
   3   5   8  701.24   29.39
   3  -5   8  656.57   34.76
   3   5   8  671.18   31.75
   3  -5   8  677.13   31.71
  -3  -5  -9   67.73    8.65
   3   5   9   84.75    9.66
   3  -5   9   98.51    9.85
   3   5   9   61.22   12.02
   3  -5   9   69.75   11.11
   3   5   9   64.11    8.37
  -3  -5 -10  459.04   25.34
  -3  -5 -10  423.52   23.82
   3   5  10  445.04   24.17
   3   5  10  393.65   27.62
   3  -5  10  430.54   27.62
   3   5  10  412.96   24.58
   3  -5  10  398.41   24.26
   3   5  11   11.62    8.70
  -3  -5 -11   30.07    7.77
   3   5  11   27.49    6.41
   3  -5  11   21.57    9.20
   3  -5  11   11.91    6.90
   3   5  11   18.02    7.71
   3   5  12   19.90    9.95
   3   5  12   20.56    6.08
   3  -5  12    8.51    9.10
   3   5  12   18.07    8.42
   3  -5  12   18.09    8.52
   3   5  13   48.97   11.37
   3   5  13   48.54    8.04
   3  -5  13   68.55   13.43
   3   5  13   51.75   10.99
   3  -5  13   30.46   10.11
   3   5  14   29.22   10.44
   3   5  14   14.91    5.50
   3  -5  14   21.97   10.62
   3  -5  14   32.97    9.94
   3   5  14   22.98    9.93
   3   5  15   12.77    9.67
   3   5  15   -1.55    4.52
   3  -5  15   -2.59    8.79
   3  -5  15   -8.31    9.98
   3   5  15   -6.11   10.16
   3   5  16   36.79   10.85
   3   5  16   27.18    7.34
   3  -5  16   43.61   12.61
   3   5  16   34.47   10.93
   3  -5  16   17.65    9.78
   3   5  17   -6.56    9.18
   3   5  17   -1.65    5.46
   3  -5  17    5.71   11.55
   3   5  17   -6.79   11.02
   3  -5  18  -11.89   11.82
   3   5  18    4.43    8.63
   3   5  18   -7.10   10.27
   3  -5  19   -3.08   10.48
   3   5  19   -2.23    9.37
   3   5  19   -2.46   10.68
   3  -5  20   25.42   12.90
   3  -5  21   13.07   12.74
  -3  -6  21   23.59   20.10
  -3   6  21    1.89    6.09
  -3  -6  20    3.85   16.14
  -3   6  20   -1.86    5.99
  -3  -6  19    3.75   15.73
  -3   6  19    1.82    5.50
  -3   6  19    2.95   13.79
  -3  -6  18   69.06   19.38
  -3   6  18   76.74   11.33
  -3   6  18   64.28   17.82
  -3  -6  17   31.56   16.85
  -3   6  17   10.43    6.23
  -3   6  17   11.58   13.17
  -3  -6  16    6.74   13.44
  -3   6  16   35.55    8.20
  -3   6  16   39.98   14.12
  -3  -6  15    3.22   14.65
  -3   6  15   -3.28    5.58
  -3   6  15   -5.63   12.79
  -3  -6  14   30.68   15.68
  -3   6  14    4.78    4.65
  -3   6  14   12.18    7.76
  -3   6  14   27.66   13.81
  -3   6  13  132.69   15.29
  -3   6  13  133.23   13.20
  -3  -6  13  156.72   21.88
  -3   6  13  145.30   15.64
  -3   6  13  133.11   19.88
  -3   6  12   -4.48    4.51
  -3   6  12    3.74    6.18
  -3  -6  12    8.20   14.29
  -3   6  12   -5.13    6.25
   3   6 -12   -3.83    9.57
  -3   6  12    8.01   13.32
  -3   6  11  390.24   26.28
  -3   6  11  429.48   25.14
  -3   6  11  389.19   32.07
  -3  -6  11  592.82   37.31
   3   6 -11  554.25   30.95
  -3   6  11  336.49   24.23
  -3   6  10   10.22    5.95
  -3  -6  10    4.74   13.46
  -3   6  10   11.43    5.80
   3   6 -10    3.42    8.11
  -3   6  10   18.25    5.70
  -3   6   9  154.78   14.81
  -3   6   9  166.01   13.92
  -3  -6   9  176.31   20.93
   3   6  -9  166.82   16.71
   3  -6  -9  157.69   13.28
  -3   6   8   37.42    8.07
  -3  -6   8   55.54   14.48
   3   6  -8   41.83    9.26
  -3   6   8   31.57    6.28
  -3   6   7   26.96    7.09
  -3   6   7   22.01    5.63
   3   6  -7   31.64    8.37
  -3   6   7   48.93    8.83
  -3  -6   7   50.01   12.42
  -3   6   6  237.99   16.00
   3   6  -6  186.56   15.60
  -3   6   6  232.38   16.45
  -3  -6   6  227.82   18.85
  -3   6   5  303.17   18.63
   3   6  -5  298.20   15.44
  -3  -6   5  282.70   20.73
  -3   6   5  302.14   18.40
   3   6  -5  274.53   18.28
  -3   6   4   70.39    8.42
  -3   6   4   78.52    8.54
   3   6  -4   77.40    7.75
   3   6  -3  686.92   31.10
   3   6  -3  699.08   31.20
  -3   6   3  662.43   32.82
  -3   6   3  682.51   30.92
   3   6  -2    1.00    4.66
  -3   6   2   -1.53    2.79
  -3   6   2   -1.17    3.41
   3   6  -2    1.78    2.95
   3   6  -1    4.44    5.12
  -3   6   1    2.35    3.42
   3   6  -1   -1.81    2.91
  -3   6   1   -0.69    2.39
  -3   6   0  295.76   15.27
  -3   6   0  276.61   15.83
   3   6   0  334.41   17.74
   3   6   0  311.66   19.36
   3   6   1  118.08    9.39
  -3   6  -1  100.52    7.37
  -3   6  -1   91.11   10.00
   3   6   1   81.45    8.39
   3   6   1   95.06   11.36
   3  -6   1   97.63    7.51
   3   6   2   41.74    6.03
   3  -6   2   35.88    4.77
  -3   6  -2   32.13    7.72
   3   6   2   37.41    6.02
   3   6   2   25.56    8.15
   3   6   3  347.62   22.96
  -3  -6  -3  365.72   19.62
  -3   6  -3  343.87   22.21
   3   6   3  356.10   19.85
   3   6   3  337.70   19.71
   3  -6   3  340.66   17.55
  -3  -6  -4  179.93   13.43
   3   6   4  179.95   16.82
  -3   6  -4  205.74   17.62
   3   6   4  191.10   14.00
   3   6   4  206.91   14.15
   3  -6   4  216.33   13.05
  -3  -6  -5  314.99   18.47
   3   6   5  294.72   22.18
   3  -6   5  275.98   17.37
   3   6   5  328.19   19.64
   3   6   5  302.10   18.46
   3   6   6   67.03    8.08
  -3  -6  -6   59.44    7.86
   3  -6   6   41.33    7.44
   3   6   6   56.46    8.29
   3   6   6   51.54   11.33
  -3  -6  -7  140.95   11.73
   3  -6   7  115.58   11.66
   3   6   7  109.60   11.53
   3   6   7  110.94   10.67
   3   6   7  105.46   14.78
  -3  -6  -8  129.00   11.65
   3  -6   8  120.73   12.65
   3   6   8  115.66   11.22
   3   6   8  108.04   15.16
  -3  -6  -9  429.06   24.50
   3   6   9  447.15   30.17
   3  -6   9  431.53   26.68
   3   6   9  448.67   24.95
   3  -6  10   22.54    8.55
   3   6  10   -1.37    4.13
   3   6  10   14.49   10.46
   3   6  11  796.92   44.33
   3  -6  11  840.94   43.16
   3   6  11  793.05   39.39
   3  -6  12    6.18    8.03
   3   6  12    1.49    5.06
   3   6  12    2.18    9.33
   3   6  13  265.84   23.77
   3  -6  13  319.40   24.99
   3   6  13  284.20   20.07
   3  -6  14    7.11    8.27
   3   6  14   20.73    6.82
   3   6  14    6.84    8.72
   3  -6  15   42.71   11.82
   3   6  15   36.33    7.73
   3   6  15   34.81   10.93
   3  -6  16   68.89   14.20
   3   6  16   73.41   10.98
   3   6  16   54.20   13.19
   3  -6  17   -2.78    9.68
   3   6  17    3.51    5.80
   3   6  17    2.39   10.36
   3  -6  18   23.17   11.74
   3   6  18   10.79    6.74
   3   6  18   16.90   10.66
   3  -6  19   24.04   12.40
   3   6  19   12.87    6.74
   3   6  19   14.60    9.87
   3  -6  20    9.29   10.53
   3   6  20    2.44    9.71
  -3   7  20   19.67    7.54
  -3   7  20   18.92   14.35
  -3   7  19   38.82    9.32
  -3   7  19   53.52   16.53
  -3   7  18   34.26    8.97
  -3   7  18   21.88   14.04
  -3   7  17   26.04    7.56
  -3   7  17    6.18   13.64
  -3   7  16   -3.63    6.78
  -3   7  16  -12.20   15.94
  -3   7  15   88.44   11.91
  -3   7  15   74.96   18.49
  -3   7  14   -2.17    7.38
  -3   7  14   12.07    5.86
  -3   7  14    2.95   13.39
  -3   7  13   58.73   11.24
  -3   7  13   53.42    8.92
  -3   7  13   37.56   15.38
  -3   7  12   73.41   10.13
  -3   7  12   76.57   11.78
  -3   7  11    1.59    4.47
  -3   7  11    3.87    6.58
  -3   7  11   -5.55   12.23
  -3   7  10    1.56    4.38
  -3   7  10    9.32    6.66
  -3   7  10    5.43   12.88
  -3   7   9   -1.55    4.83
  -3   7   9    3.58    5.92
  -3   7   8    7.62    5.45
  -3   7   8    3.45    5.55
  -3   7   7  186.94   16.69
  -3   7   7  196.49   15.72
  -3   7   6  236.61   17.32
  -3   7   5    4.15    4.94
   3   7  -4  114.74   10.18
  -3   7   4   94.70   10.58
   3   7  -3   65.56    7.81
   3   7  -3   64.75    8.68
  -3   7   2  489.77   27.18
   3   7  -2  502.43   25.71
   3   7  -2  511.24   26.62
  -3   7   1   17.54    5.57
   3   7  -1    4.33    3.69
   3   7  -1    9.02    6.82
  -3   7   0   14.91    5.51
   3   7   0   15.33    5.07
   3   7   0    4.20    7.50
   3   7   1  140.31   11.50
   3   7   1  131.74   11.29
   3   7   1  138.72   14.42
   3   7   2   23.28    5.32
   3   7   2   11.15    4.95
   3   7   2   11.28    8.16
   3   7   3  187.56   17.91
   3   7   3  172.98   14.08
   3   7   3  173.90   13.73
   3   7   4  220.90   19.52
   3   7   4  221.40   15.81
   3   7   4  211.85   15.50
  -3  -7  -5    4.74    4.23
   3   7   5    7.65    4.33
   3   7   5    1.34    5.12
   3   7   5   -3.77    9.62
  -3  -7  -6   -1.23    4.69
   3   7   6    5.24    4.21
   3   7   6    5.70    6.09
   3   7   6   -9.83   11.26
  -3  -7  -7  230.71   16.21
   3   7   7  200.65   16.51
   3   7   7  206.99   15.83
   3   7   7  182.19   19.58
   3   7   8   11.17    5.68
   3   7   8   21.26   10.75
   3   7   9   88.11   10.69
   3   7   9   83.30   14.91
   3   7  10   16.43    5.74
   3   7  10   22.64   11.32
   3   7  11   -1.55    5.28
   3   7  11    4.64    9.40
   3   7  12   16.11    6.31
   3   7  12   21.36   10.48
   3   7  13  109.86   12.90
   3   7  13  112.06   16.57
   3   7  14   23.99    7.85
   3   7  14   42.16   13.00
   3   7  15  183.22   16.68
   3   7  15  148.58   19.63
   3   7  16   18.08    7.07
   3   7  16   17.86   11.61
   3   7  17    5.57    5.80
   3   7  17   15.46   10.44
   3   7  18   56.88   10.63
   3   7  18   54.41   13.69
   3   7  19   21.24    6.93
   3   7  19   15.65    9.98
  -3   8  18   -2.02    6.48
  -3   8  18   -3.29   15.60
  -3   8  17  108.56   13.74
  -3   8  17  100.81   20.46
  -3   8  16   25.15    7.75
  -3   8  16   41.65   15.42
  -3   8  15  369.79   25.00
  -3   8  15  347.97   27.40
  -3   8  15  337.51   31.72
  -3   8  14    6.94    7.86
  -3   8  14   -3.70    5.20
  -3   8  14  -12.39   13.65
  -3   8  13  108.87   13.26
  -3   8  13  139.20   16.37
  -3   8  12    5.31    5.35
  -3   8  12    4.34    6.76
  -3   8  12    5.94   13.49
  -3   8  11   -1.74    4.89
  -3   8  11    2.09    6.32
  -3   8  11    2.90   13.00
  -3   8  10   65.19    9.97
  -3   8  10   38.48    9.22
  -3   8  10   34.03   14.76
  -3   8   9   41.05    8.29
  -3   8   9   25.47    8.01
  -3   8   9   24.89   12.62
  -3   8   8   10.15    5.60
  -3   8   8    3.80    6.28
  -3   8   8   10.81   12.46
  -3   8   7  116.09   13.74
  -3   8   7  148.56   14.12
  -3   8   7  110.88   18.25
  -3   8   6   33.29    7.19
   3   8  -5  115.55   10.83
  -3   8   5  106.13   11.87
   3   8  -4    3.63    4.32
  -3   8   4    1.55    4.83
   3   8  -3  487.40   25.51
  -3   8   3  430.94   26.48
  -3   8   2    6.11    4.77
   3   8  -2   16.01    5.53
   3   8  -1  955.23   43.42
   3   8  -1  936.50   45.08
  -3   8   1  973.39   45.50
  -3   8   0   -1.53    5.20
   3   8   0    3.81    4.42
   3   8   0   -4.74    8.52
  -3   8  -1  489.78   27.86
   3   8   1  427.46   28.64
   3   8   1  516.94   27.01
   3   8   1  493.84   26.11
   3   8   2    1.33    4.53
   3   8   2    7.60    5.50
   3   8   3   31.81    7.14
   3   8   3   24.04    6.75
   3   8   3   43.40   12.08
   3   8   4   91.68   10.80
   3   8   4  111.10   12.01
   3   8   4   95.40   14.86
   3   8   5    2.88    4.35
   3   8   5    4.46    5.43
   3   8   6   -1.47    4.28
   3   8   6    3.14    5.86
   3   8   6   -8.64   10.51
   3   8   7   28.52    6.89
   3   8   7   26.39    7.77
   3   8   7   24.53   11.57
   3   8   8   91.72   12.22
   3   8   8  113.85   12.35
   3   8   8  103.83   15.57
   3   8   9   28.58    6.83
   3   8   9    9.52   11.16
   3   8  10    8.15    5.96
   3   8  10    2.44   10.76
   3   8  11   30.30    8.04
   3   8  11   22.55   11.43
   3   8  12   17.29    6.76
   3   8  12    7.66   10.16
   3   8  13   21.38    7.26
   3   8  13   25.98   11.66
   3   8  14   78.87   11.80
   3   8  14   39.54   12.67
   3   8  15    7.49    6.20
   3   8  16    3.82    5.57
   3   8  16   21.73   11.21
   3   8  17  265.20   21.28
   3   8  17  213.72   23.56
  -3   9  16    6.14    5.97
  -3   9  16   13.30   14.66
  -3   9  15   -2.51    7.59
  -3   9  15   10.02    6.44
  -3   9  15   -9.81   15.08
  -3   9  14   15.81    7.24
  -3   9  14    9.82    9.76
  -3   9  14    3.21   13.01
  -3   9  13   71.73   11.10
  -3   9  13   74.03   13.55
  -3   9  13   85.01   18.38
  -3   9  12   34.45    8.12
  -3   9  12   32.47   10.45
  -3   9  12   33.89   15.42
  -3   9  11    1.89    5.52
  -3   9  11    6.75    6.79
  -3   9  11   -3.01   13.48
  -3   9  10   11.20    6.35
  -3   9  10    4.37    6.82
  -3   9  10    8.81   12.55
  -3   9   9   20.59    7.18
  -3   9   9   23.36    8.79
  -3   9   9   17.18   13.22
  -3   9   8   18.59    7.55
  -3   9   8   20.63    8.38
  -3   9   8   11.15   11.72
  -3   9   7    1.80    5.61
  -3   9   7    4.02    7.18
  -3   9   7   10.85   13.54
  -3   9   6   33.47    8.09
  -3   9   6   31.66   13.99
  -3   9   5  152.70   14.97
  -3   9   5  166.67   20.92
  -3   9   4   51.58    9.06
  -3   9   4   44.84   13.84
  -3   9   3  376.01   24.52
   3   9  -3  364.84   22.52
  -3   9   3  367.09   29.40
   3   9  -2   41.67    7.69
  -3   9   2   34.00    8.17
  -3   9   1   25.41    7.51
   3   9  -1   19.72    6.26
   3   9   0  143.06   13.30
  -3   9   0  152.91   15.05
  -3   9  -1   -3.39    5.76
   3   9   1   -1.46    4.83
   3   9   1   -5.53    8.74
   3   9   2   97.71   11.36
  -3   9  -2   82.87   11.06
   3   9   2  113.54   14.62
   3   9   3  190.59   15.83
   3   9   3  160.38   17.99
   3   9   4  181.98   15.46
   3   9   4  143.95   17.88
   3   9   5   70.37   10.01
   3   9   5   60.67   13.88
   3   9   6   84.14   11.16
   3   9   6   98.98   12.38
   3   9   6   88.59   14.98
   3   9   7    9.93    5.64
   3   9   7   16.07    6.83
   3   9   7    9.59   10.41
   3   9   8  240.43   19.97
   3   9   8  209.36   17.82
   3   9   8  227.42   22.84
   3   9   9   39.77    8.54
   3   9   9   43.22   13.80
   3   9  10   22.92    7.20
   3   9  10   33.72   12.33
   3   9  11    1.81    5.28
   3   9  11   13.28   11.34
   3   9  12    3.70    5.58
   3   9  12   -2.70    9.41
   3   9  13   58.74   10.60
   3   9  13   41.10   12.76
   3   9  14   21.36    7.58
   3   9  14   -2.79   10.20
   3   9  15    1.98    6.36
   3   9  15    8.46   10.54
  -3  10  14    2.58    8.05
  -3  10  13   32.99    8.85
  -3  10  13   22.73    9.49
  -3  10  13   19.39   13.36
  -3  10  12   -2.05    5.75
  -3  10  12   -4.92    7.91
  -3  10  12    3.16   12.57
  -3  10  11  240.02   20.47
  -3  10  11  189.31   19.88
  -3  10  11  169.95   22.92
  -3  10  10   -4.03    5.88
  -3  10  10   -2.34    7.05
  -3  10  10   12.07   14.11
  -3  10   9  129.89   14.95
  -3  10   9  113.88   15.68
  -3  10   9   91.18   17.76
  -3  10   8    4.09    5.96
  -3  10   8   11.10    7.74
  -3  10   8   -5.73   13.77
  -3  10   7  187.41   17.29
  -3  10   7  143.20   17.09
  -3  10   7  150.54   21.15
  -3  10   6   23.18    7.43
  -3  10   6   38.17    9.68
  -3  10   6   13.55   11.41
  -3  10   5  235.37   19.29
  -3  10   5  223.81   23.80
  -3  10   4  207.97   18.64
  -3  10   4  239.76   24.41
  -3  10   3   39.43    8.90
  -3  10   3   49.43   14.36
  -3  10   2    5.62    6.03
  -3  10   2    4.78   10.85
  -3  10   1    9.31    5.64
   3  10  -1   12.46    4.87
   3  10   0   22.27    6.92
  -3  10   0   11.10    6.14
   3  10   1   -1.62    4.72
  -3  10  -1   -1.85    6.12
  -3  10  -2  259.38   20.20
   3  10   2  225.21   18.65
  -3  10  -3  172.45   16.41
   3  10   3  153.07   15.38
   3  10   3  204.39   19.85
   3  10   4   -3.48    5.59
   3  10   4   -4.58   11.00
   3  10   5  394.73   28.94
   3  10   5  332.42   23.45
   3  10   6   12.37    6.77
   3  10   6   22.14   10.69
   3  10   7   89.99   12.27
   3  10   7   78.61   15.60
   3  10   8   -1.83    5.51
   3  10   8   -7.82   12.03
   3  10   9   39.08    8.51
   3  10   9    8.02   10.87
   3  10  10   18.98    7.30
   3  10  10   40.84   12.40
   3  10  11   23.15    7.55
   3  10  11    8.34   11.27
   3  10  12   -1.97    6.51
   3  10  12   11.27   11.20
   3  10  13   24.10    8.01
   3  10  13    5.73   11.19
  -3  11  11   -2.53    7.88
  -3  11  11   -3.13   14.02
  -3  11  10   21.45    7.69
  -3  11  10   27.15   10.38
  -3  11  10   -3.06   13.94
  -3  11   9  229.54   21.46
  -3  11   9  203.19   19.44
  -3  11   8    6.53    7.00
  -3  11   8    9.45    8.24
  -3  11   8    8.75   12.24
  -3  11   7  242.27   22.07
  -3  11   7  231.13   20.56
  -3  11   7  224.41   25.20
  -3  11   6   79.96   12.23
  -3  11   6   74.55   13.09
  -3  11   6   69.13   17.04
  -3  11   5    6.21    6.45
  -3  11   5    2.21    7.72
  -3  11   5   -5.37   11.66
  -3  11   4   -2.05    7.33
  -3  11   4    5.22   10.36
  -3  11   3  105.52   13.83
  -3  11   1   40.32    9.66
  -3  11   0   27.98    8.15
  -3  11  -1    1.99    5.14
  -3  11  -2   33.66    8.25
   3  11   3   46.71    9.67
  -3  11  -3   41.21    8.65
   3  11   4    7.49    6.19
  -3  11  -4    1.95    5.05
   3  11   5   94.23   12.63
  -3  11  -5   77.71   11.50
   3  11   5   76.56   14.31
   3  11   6   41.73    8.94
   3  11   6   15.39   11.36
   3  11   7  140.45   15.39
   3  11   7  133.73   18.34
   3  11   8   76.39   11.75
   3  11   8   51.10   13.78
   3  11   9  148.94   16.49
   3  11   9  170.61   21.40
   3  11  10   -2.02    5.89
   3  11  10   -5.62   10.50
  -3  12   7   31.51   13.99
  -3  12   5   37.74    9.87
  -3  12   4   35.11    9.29
  -3  12   3   17.41    7.98
  -3  12   2   12.90    6.92
  -3  12   1   14.97    8.01
  -3  12   0    2.13    6.83
  -3  12  -1   88.63   12.80
  -3  12  -2   25.13    8.21
  -3  12  -3   12.46    6.49
  -3  12  -4   18.55    7.56
  -3  12  -5    6.14    6.58
  -3  12  -6   38.61    9.47
   3  12   7   16.28    6.93
  -4   0  24   22.62   20.27
  -4   0  23    4.45   17.67
   4   0 -23   12.08   14.38
  -4   0  23   -8.83   16.85
  -4   0  22    8.66   17.22
  -4   0  22  -13.12   20.45
  -4   0  21   -4.22   17.70
  -4   0  20   12.21   16.79
  -4   0  19    7.81   15.52
  -4   0  18   42.08   12.83
  -4   0  17    5.31    9.93
  -4   0  16  500.48   33.31
   4   0 -16  397.44   24.37
   4   0 -15   -0.94    3.80
   4   0 -15    1.23    5.50
  -4   0  15   -2.35    9.51
   4   0 -14  305.53   19.03
   4   0 -14  296.67   17.07
   4   0 -14  334.47   23.97
  -4   0  14  285.55   24.31
   4   0 -14  287.64   20.81
   4   0 -13    1.63    3.11
   4   0 -13    1.07    4.88
  -4   0  13   -2.04    8.85
   4   0 -13    8.88    7.95
   4   0 -13   -1.48    5.77
   4   0 -12   84.42    8.76
   4   0 -12  101.58    7.99
   4   0 -12   71.98   10.08
   4   0 -12  104.20   12.35
  -4   0  12   75.19   12.30
   4   0 -11   -0.68    2.64
   4   0 -11   -2.73    4.07
   4   0 -11    1.29    4.91
   4   0 -11    4.57    6.06
  -4   0  11   -3.44    6.00
   4   0 -10  507.49   24.35
   4   0 -10  497.14   22.79
   4   0 -10  551.04   28.71
  -4   0  10  478.25   28.90
   4   0 -10  536.15   27.09
   4   0  -9    4.83    5.17
   4   0  -9    5.04    4.71
   4   0  -9   -1.08    1.97
   4   0  -9    1.07    4.10
  -4   0   9   -1.40    4.63
   4   0  -9    1.48    2.89
  -4   0   9   -1.60    2.21
   4   0  -8 1989.21   81.55
   4   0  -8 2024.88   73.71
   4   0  -8 2000.72   75.40
  -4   0   8 1973.26   73.59
   4   0  -8 1948.41   78.84
  -4   0   8 1940.02   79.94
   4   0  -8 2007.72   78.00
   4   0  -7   -0.99    3.26
   4   0  -7    6.22    4.23
   4   0  -7    0.40    1.61
  -4   0   7    1.22    2.23
  -4   0   7    0.40    1.44
  -4   0   7   -2.14    3.64
  -4   0   6  829.83   34.86
   4   0  -6  885.82   33.54
  -4   0   6  904.43   33.55
   4   0  -6  828.59   38.63
   4   0  -6  846.74   38.32
  -4   0   6  892.38   38.01
   4   0  -6  890.55   37.68
  -4   0   6  851.54   38.70
  -4   0   5    0.43    1.69
  -4   0   5   -0.27    1.13
   4   0  -5   -0.72    2.30
  -4   0   5    0.99    3.45
   4   0  -5   -0.90    3.15
   4   0  -5    0.27    1.22
   4   0  -5   -1.70    3.44
  -4   0   5    0.87    2.86
  -4   0   5    0.76    2.30
  -4   0   4  548.99   21.13
   4   0  -4  546.16   21.14
  -4   0   4  596.79   26.35
   4   0  -4  552.88   24.99
  -4   0   4  563.60   24.99
   4   0  -4  519.14   23.94
   4   0  -4  565.20   25.36
  -4   0   4  576.86   25.82
  -4   0   3   -3.13    3.27
  -4   0   3   -0.56    2.62
   4   0  -3    0.93    1.59
  -4   0   3    0.17    0.91
  -4   0   3    0.66    3.07
   4   0  -3    0.55    2.26
  -4   0   2   15.63    3.15
   4   0  -2   12.60    2.66
   4   0  -2   14.44    2.42
  -4   0   2   11.27    2.30
  -4   0   1   -2.26    2.95
  -4   0   1    1.49    1.30
  -4   0   1    0.44    1.58
   4   0  -1    0.40    1.20
  -4   0   1    0.41    1.50
  -4   0   0 4195.05  149.21
   4   0   0 4121.22  151.14
  -4   0   0 4182.07  150.20
  -4   0  -1    2.27    2.40
  -4   0  -1    3.02    2.67
   4   0   1    3.09    2.58
  -4   0  -2 1210.16   45.44
  -4   0  -2 1242.76   46.24
   4   0   2 1191.78   46.01
   4   0   2 1164.50   46.22
  -4   0  -2 1176.69   46.10
  -4   0  -3    0.45    2.45
  -4   0  -3    0.59    2.98
   4   0   3   -2.17    2.84
   4   0   3    0.56    2.05
  -4   0  -3    4.28    3.37
   4   0   4  174.70   10.14
  -4   0  -4  198.59   10.75
   4   0   4  199.55   11.73
  -4   0  -4  200.01   12.47
   4   0   4  186.59   11.20
  -4   0  -4  210.13   12.38
   4   0   5    0.53    2.09
  -4   0  -5   -3.70    4.78
  -4   0  -5    5.81    5.00
   4   0   5    0.81    2.74
   4   0   5    0.78    2.84
  -4   0  -5   -1.16    3.04
   4   0   6  148.10    9.27
  -4   0  -6  158.86   10.24
   4   0   6  151.10   11.49
  -4   0  -6  134.60   12.93
  -4   0  -6  162.57   13.03
   4   0   6  175.77   11.83
  -4   0  -7   -0.75    3.65
   4   0   7   -2.23    3.68
  -4   0  -7    1.39    6.78
  -4   0  -7    1.34    6.26
   4   0   7    1.07    3.54
   4   0   7   -1.88    2.39
  -4   0  -8 1726.96   66.01
  -4   0  -8 1719.47   66.98
   4   0   8 1681.89   65.41
  -4   0  -8 1777.91   73.18
  -4   0  -8 1644.17   72.61
   4   0   8 1700.51   70.26
   4   0   8 1672.34   69.66
   4   0   9   -0.73    2.72
  -4   0  -9   16.40   10.34
   4   0   9   -2.77    5.71
  -4   0  -9   -1.91    5.71
   4   0   9   -1.43    4.87
  -4   0  -9    7.27    9.18
  -4   0  -9    5.24    6.04
   4   0  10  390.34   25.17
   4   0  10  448.01   21.29
  -4   0 -10  456.02   21.98
  -4   0 -10  396.43   22.66
   4   0  10  416.90   26.05
  -4   0 -10  432.54   29.54
  -4   0 -10  398.93   24.79
   4   0  11   -5.07    7.78
   4   0  11    0.83    3.93
  -4   0 -11    0.95    3.13
  -4   0 -11   -2.29    6.97
   4   0  11   -6.99    6.81
  -4   0 -11   13.15   12.55
  -4   0 -11   -1.54    6.68
   4   0  12  121.06   14.81
   4   0  12  127.81   10.32
  -4   0 -12  112.64   10.29
  -4   0 -12  131.57   13.09
   4   0  12  157.92   16.35
  -4   0 -12  112.51   14.15
   4   0  13  -11.86   10.67
   4   0  13   -0.92    3.86
  -4   0 -13   -1.34    8.09
  -4   0 -13    1.08    4.04
   4   0  13   -6.15    7.99
  -4   0 -13    1.76    8.24
  -4   0 -14  105.53   10.63
   4   0  14  124.79   16.48
  -4   0 -14  126.42   15.79
   4   0  14  118.53   15.91
   4   0  15   -6.75   12.89
  -4   0 -15   -1.96    8.64
   4   0  15   -9.33    9.80
   4   0  16    2.47    9.22
   4   0  16  -11.91   10.98
   4   0  17    7.78    9.04
   4   0  17   -5.01   12.35
   4   0  18   32.51   11.99
   4   0  18   26.19   12.12
   4   0  19   -8.47   10.79
   4   0  19  -16.40   13.14
   4   0  20    5.85   11.39
   4   0  20    2.84   11.07
   4   0  21   -3.02    9.99
   4   0  21  -11.72   14.81
   4   0  22  217.05   24.95
   4   0  22  210.72   24.51
   4   0  23   -3.17   11.05
   4   0  23   -6.18   12.28
  -4   1  24   31.10   19.92
  -4  -1  23   13.44   20.40
  -4   1  23   21.82   18.66
  -4  -1  23   39.33   22.36
  -4   1  23   57.23   22.53
   4   1 -23   44.36   16.96
   4  -1 -23   24.03   13.65
  -4   1  22   13.08   19.51
  -4  -1  22    4.33   16.87
  -4  -1  22    8.77   17.77
  -4   1  22   -4.25   16.90
  -4  -1  21   12.82   17.94
  -4   1  21   28.96   19.89
  -4   1  20   31.95   19.44
  -4  -1  20   -4.12   17.00
  -4   1  20    3.05    9.82
  -4   1  19    3.83   16.88
  -4  -1  19   15.84   16.62
  -4   1  19    8.73   12.43
  -4  -1  18   37.77   17.23
  -4   1  18   44.22   12.83
  -4   1  17   26.17   11.02
   4  -1 -16   44.20    8.30
  -4  -1  16   38.31   12.34
  -4   1  16   27.13   12.07
   4  -1 -16   33.51    6.81
   4  -1 -15   73.35   10.25
   4   1 -15   52.10    8.07
   4   1 -15   78.67   12.93
  -4  -1  15   69.47   13.74
  -4   1  15   60.09   13.51
   4  -1 -15   42.87    7.39
   4   1 -14    5.40    4.69
   4  -1 -14   -1.24    5.36
   4   1 -14    4.11    3.63
   4   1 -14   16.57    7.64
   4   1 -14    5.72    7.43
  -4  -1  14   -2.24    8.56
  -4   1  14   -8.60    8.87
   4  -1 -14   11.18    7.26
   4  -1 -14    8.62    4.16
  -4  -1  13  820.93   44.03
   4  -1 -13  759.21   40.80
  -4   1  13  720.51   41.87
   4   1 -13  798.29   39.97
   4   1 -13  788.42   41.59
   4   1 -13  800.80   34.28
   4  -1 -13  795.28   37.18
   4  -1 -13  816.08   35.34
   4   1 -13  824.86   36.19
  -4   1  13  789.00   35.18
   4   1 -12  970.19   46.64
   4  -1 -12  963.96   48.11
  -4   1  12 1015.75   49.73
  -4  -1  12 1031.25   50.51
   4   1 -12  952.94   47.83
   4   1 -12  984.12   42.98
   4  -1 -12 1058.40   44.52
   4   1 -12 1024.80   41.27
   4  -1 -12 1038.60   42.42
  -4   1  12 1008.65   42.56
   4   1 -11  638.53   32.01
   4  -1 -11  663.29   33.33
  -4   1  11  573.91   33.04
  -4  -1  11  604.10   34.06
   4   1 -11  543.72   31.80
   4   1 -11  604.61   26.20
   4   1 -11  565.43   27.53
   4  -1 -11  627.03   29.24
   4  -1 -11  626.99   27.47
  -4   1  11  591.17   27.28
   4  -1 -10   75.50    9.74
   4  -1 -10   80.62   11.38
   4   1 -10   71.90    9.17
  -4   1  10  105.20   11.41
  -4  -1  10   74.19   10.53
   4   1 -10   93.94   10.91
   4   1 -10   78.43    6.28
   4   1 -10   81.29    7.44
  -4   1  10   58.58    6.34
   4  -1 -10   63.33    6.47
   4   1  -9 1400.55   63.58
   4  -1  -9 1402.80   63.40
   4   1  -9 1451.55   61.42
  -4  -1   9 1453.80   63.04
   4  -1  -9 1388.33   60.90
   4   1  -9 1425.28   60.59
  -4   1   9 1497.17   62.25
  -4   1   9 1466.17   58.78
   4   1  -9 1496.88   56.82
   4  -1  -9 1547.95   56.86
  -4   1   9 1493.13   56.84
   4   1  -9 1398.52   55.06
   4   1  -8  112.02   11.92
   4  -1  -8  104.67   10.99
   4  -1  -8   87.37    9.42
  -4   1   8  125.64   10.96
   4   1  -8  119.61   10.83
  -4  -1   8   89.87   10.37
   4   1  -8  104.62    9.92
   4  -1  -8  120.43    7.77
   4   1  -8   92.82    7.34
  -4   1   8  101.32    8.67
   4   1  -8   98.17    6.51
  -4   1   8  130.50    8.12
   4   1  -7  148.77   12.60
   4  -1  -7  136.93   12.02
  -4   1   7  170.95   10.49
   4   1  -7  148.75    8.78
  -4   1   7  158.94    9.01
   4   1  -7  147.76    7.80
   4  -1  -7  165.32    9.21
   4   1  -7  143.39   11.36
   4   1  -7  163.38   11.53
   4  -1  -7  154.79   11.42
  -4   1   7  121.20   11.79
  -4   1   7  129.56   11.02
  -4  -1   7  167.12   12.96
   4  -1  -6 2585.54   93.30
  -4   1   6 2552.46   95.02
   4   1  -6 2559.40   92.68
  -4   1   6 2580.45   93.38
   4   1  -6 2593.36   91.60
   4  -1  -6 2520.75   98.14
   4   1  -6 2546.68   98.47
   4  -1  -6 2551.67   97.75
   4   1  -6 2469.89   97.67
  -4   1   6 2420.22   97.97
  -4   1   6 2537.78   96.91
   4   1  -6 2469.57   96.42
   4   1  -6 2563.74   96.34
  -4  -1   6 2560.05   97.85
   4  -1  -6 2602.52   96.61
  -4   1   5    2.97    1.65
   4  -1  -5    3.21    1.50
   4   1  -5    3.12    1.02
   4   1  -5    0.90    2.82
   4  -1  -5    3.56    2.94
  -4   1   5    5.33    3.02
   4  -1  -5    1.43    2.08
   4   1  -5    1.42    2.28
  -4  -1   5    4.14    3.29
   4   1  -5    2.03    2.64
  -4  -1   5    0.86    3.20
   4   1  -5    3.39    3.03
   4  -1  -5    0.83    2.60
   4  -1  -4    2.73    2.32
  -4  -1   4    4.20    3.08
   4   1  -4    8.32    2.92
  -4   1   4   10.97    3.84
   4  -1  -4    9.05    2.03
  -4   1   4    5.15    1.69
  -4  -1   4    7.43    1.58
   4   1  -4    2.28    2.28
  -4  -1   4   10.36    4.13
  -4   1   4   15.99    4.45
  -4   1   4    5.11    2.74
   4  -1  -4    8.35    2.64
   4  -1  -4    6.52    3.05
   4   1  -4    3.69    2.58
  -4  -1   4    6.06    2.74
  -4  -1   4    6.94    3.07
  -4   1   3  867.45   32.84
  -4   1   3  844.72   35.20
  -4  -1   3  887.90   35.39
   4  -1  -3  872.03   34.12
  -4  -1   3  852.05   31.15
  -4  -1   3  871.23   34.58
   4   1  -3  885.78   33.78
  -4   1   3  794.19   34.75
  -4  -1   3  868.35   34.44
   4  -1  -3  859.42   34.40
   4   1  -3  849.28   34.46
  -4   1   3  810.00   35.28
  -4  -1   3  835.15   35.31
  -4  -1   2  403.76   18.46
   4   1  -2  434.87   17.90
   4  -1  -2  412.06   18.43
  -4   1   2  431.70   19.19
  -4   1   2  423.64   19.35
   4  -1  -2  482.30   19.01
   4   1  -2  453.38   18.85
  -4  -1   2  468.36   19.66
   4  -1  -2  441.05   18.79
   4   1  -2  404.24   18.56
  -4  -1   1   30.43    3.65
  -4  -1   1   36.88    3.21
  -4   1   1   29.41    3.49
  -4   1   1   30.54    4.47
  -4  -1   1   36.36    3.64
   4   1  -1   31.94    3.27
   4  -1  -1   31.96    3.32
  -4   1   1   25.34    3.17
  -4  -1   1   32.59    3.69
  -4   1   1   35.34    3.84
   4   1   0 3581.06  139.17
  -4   1   0 3919.77  138.86
  -4  -1   0 3740.63  138.77
   4  -1   0 3947.23  139.82
  -4  -1   0 3938.36  137.99
  -4  -1   0 3816.33  136.05
  -4   1   0 3961.09  137.90
  -4  -1   0 3850.60  137.84
   4   1   1 2751.73  103.88
   4  -1   1 2878.56  104.12
  -4   1  -1 2963.15  103.77
  -4  -1  -1 2863.36  103.26
   4   1   1 2673.56  102.99
  -4  -1  -1 2864.67  103.39
  -4  -1  -1 2887.43  101.69
  -4  -1  -1 2850.05  103.22
  -4   1  -1 2836.49  103.15
  -4  -1  -2 2361.09   84.02
  -4  -1  -2 2379.19   85.11
   4  -1   2 2360.80   85.77
   4   1   2 2295.96   85.25
  -4  -1  -2 2269.96   85.48
   4   1   2 2368.26   85.33
  -4   1  -2 2300.59   85.78
   4   1   2 2188.96   85.04
  -4  -1  -2 2273.35   85.23
  -4   1  -2 2324.26   85.26
   4  -1   2 2360.28   85.47
  -4  -1  -3  485.14   19.74
   4   1   3  420.83   20.22
   4  -1   3  479.59   21.27
  -4  -1  -3  490.25   21.04
  -4   1  -3  476.71   21.78
   4   1   3  438.35   20.42
  -4  -1  -3  463.32   21.16
   4  -1   3  452.43   20.63
  -4   1  -3  459.96   21.02
   4   1   3  475.15   20.75
  -4  -1  -3  469.64   21.10
  -4  -1  -4  624.27   25.30
   4   1   4  629.24   26.31
  -4  -1  -4  597.13   26.61
  -4   1  -4  600.82   24.95
   4   1   4  621.95   26.31
   4  -1   4  609.62   27.08
  -4   1  -4  581.38   27.76
  -4  -1  -4  553.41   26.74
  -4  -1  -4  615.49   27.41
  -4   1  -4  599.99   27.29
   4  -1   4  615.59   26.54
   4   1   4  628.94   26.68
  -4  -1  -5   14.86    2.97
  -4   1  -5   24.69    3.46
   4   1   5   12.56    3.15
  -4   1  -5    6.51    4.96
  -4  -1  -5   17.84    5.89
  -4  -1  -5   24.78    4.76
   4  -1   5   19.95    4.48
  -4  -1  -5   18.27    5.12
  -4   1  -5   22.91    6.26
   4   1   5   12.48    3.49
   4  -1   5   20.83    4.08
   4   1   5   25.53    4.55
  -4   1  -6    2.10    2.52
   4   1   6    2.90    2.65
  -4  -1  -6    3.40    5.31
  -4   1  -6    5.63    6.02
   4  -1   6    3.65    3.26
   4   1   6    3.67    3.20
  -4  -1  -6    0.85    3.62
   4   1   6   -0.88    3.42
   4  -1   6   -1.02    3.46
  -4   1  -6   -5.01    6.09
  -4  -1  -6   -3.38    6.14
  -4  -1  -6    2.50    2.33
  -4  -1  -7   -2.09    2.49
   4   1   7   -1.58    3.48
   4  -1   7   -2.13    3.71
  -4   1  -7   -1.35    6.48
   4   1   7   -3.20    4.15
  -4  -1  -7   -5.42    6.67
  -4   1  -7   -2.98    3.25
  -4  -1  -7   -0.95    4.92
   4  -1   7    1.18    4.30
  -4   1  -7   -1.47    7.61
  -4  -1  -7    9.39    7.09
   4   1   7   -1.03    4.26
  -4  -1  -7   -2.85    3.98
   4   1   8  264.48   16.97
   4  -1   8  215.53   15.60
  -4  -1  -8  223.84   13.39
  -4  -1  -8  225.71   15.70
  -4   1  -8  233.39   13.27
   4   1   8  228.17   14.01
  -4  -1  -8  193.75   17.77
  -4   1  -8  234.24   18.81
  -4   1  -8  213.21   18.54
   4   1   8  243.52   16.22
   4  -1   8  217.82   16.34
  -4  -1  -8  221.96   18.55
  -4  -1  -8  230.24   15.47
   4   1   9  183.31   14.82
   4  -1   9  152.19   14.28
  -4  -1  -9  189.31   12.20
   4   1   9  185.17   12.62
  -4   1  -9  193.30   12.21
  -4   1  -9  165.13   17.94
  -4  -1  -9  165.48   17.68
  -4  -1  -9  201.39   15.07
  -4  -1  -9  163.42   17.16
   4   1   9  189.21   14.77
   4  -1   9  175.13   15.17
  -4   1  -9  147.31   16.93
  -4  -1  -9  189.78   14.37
   4  -1  10  204.31   16.83
   4   1  10  191.48   16.72
  -4  -1 -10  223.69   13.73
   4   1  10  209.52   13.97
  -4   1 -10  192.82   13.18
  -4  -1 -10  209.61   16.06
  -4   1 -10  206.24   21.08
  -4  -1 -10  190.85   19.45
   4   1  10  204.12   16.38
   4  -1  10  193.87   16.95
  -4  -1 -10  166.82   14.82
  -4  -1 -11   64.97    7.49
   4  -1  11   53.56    5.94
   4   1  11   47.18    7.19
   4  -1  11   60.33   10.52
   4   1  11   30.29    8.58
  -4   1 -11   45.02    8.13
  -4  -1 -11   47.13   10.00
   4   1  11   41.71    9.27
   4  -1  11   65.38   11.46
  -4   1 -11   31.66   14.43
  -4   1 -11   46.45   10.49
  -4  -1 -11   65.75    9.93
   4   1  12  262.03   20.80
   4  -1  12  224.56   20.04
   4  -1  12  242.80   14.26
   4   1  12  256.43   16.78
  -4   1 -12  264.05   16.10
  -4  -1 -12  253.20   16.38
  -4  -1 -12  240.88   19.39
  -4   1 -12  268.59   17.52
   4   1  12  290.99   21.53
   4  -1  12  311.57   22.98
  -4   1 -12  270.32   21.16
  -4  -1 -12  261.89   19.57
   4  -1  13  126.01   15.34
   4   1  13   86.88   14.18
   4   1  13  104.42   10.76
  -4   1 -13  118.78   10.47
  -4  -1 -13  102.02   10.24
  -4  -1 -13   92.24   14.02
   4   1  13   90.37   13.86
   4  -1  13  110.28   15.43
  -4   1 -13  118.01   15.21
  -4  -1 -13  125.09   14.20
   4   1  14  118.27   16.70
   4  -1  14  116.01   16.76
   4   1  14  162.03   13.11
  -4   1 -14  153.06   12.36
  -4  -1 -14  150.44   12.60
  -4  -1 -14  155.54   17.72
   4   1  14  143.44   16.92
   4  -1  14  140.51   17.19
  -4   1 -14  138.57   16.84
  -4  -1 -14  109.92   14.01
   4   1  15    6.04    5.88
  -4  -1 -15   11.01    8.09
   4   1  15    8.98    9.26
   4  -1  15   14.44   10.94
   4   1  15    4.49   10.36
   4  -1  15   -4.49   10.64
   4   1  16    4.75    9.96
   4  -1  16   10.17    9.90
   4   1  16   -4.75   11.10
   4  -1  16   -2.38   10.79
   4  -1  17    5.34    9.07
   4   1  17   -2.50    8.49
   4  -1  17   -2.50   10.85
   4   1  17    2.50    9.93
   4   1  18  120.41   17.74
   4  -1  18  122.64   18.71
   4  -1  18   91.48   17.36
   4   1  18  112.28   17.82
   4   1  19   13.62    9.75
   4  -1  19   40.63   13.77
   4  -1  19   27.28   12.77
   4   1  19    8.17   12.02
   4   1  20   16.94   11.71
   4  -1  20   60.10   14.87
   4  -1  20   39.60   13.47
   4   1  20   39.49   14.30
   4   1  21    2.91   10.41
   4  -1  21    3.10    9.96
   4   1  21    2.92   10.91
   4  -1  21  -11.70   13.68
   4  -1  22   12.73   11.91
   4   1  22   35.90   13.21
   4  -1  22    6.01   11.73
   4   1  22   29.96   12.59
   4   1  23   15.32   12.41
   4  -1  23   -9.76   13.42
   4   1  23   -6.13   13.92
   4  -1  23   -6.14   12.44
  -4   2  24   -4.31   19.00
  -4  -2  23    4.49   18.51
  -4   2  23    8.45   18.34
  -4  -2  23   29.93   19.15
  -4   2  23   17.28   18.13
   4  -2 -23   -3.96   13.10
   4   2 -23   16.09   12.93
  -4   2  22    3.28   11.72
  -4  -2  22   21.99   17.82
  -4   2  22   12.40   17.65
  -4   2  22   12.82   18.55
  -4  -2  22   25.43   20.36
   4  -2 -22   19.20   14.97
   4   2 -22   -3.90   12.16
  -4   2  21    3.15   10.12
  -4   2  21    4.22   17.40
  -4   2  21    4.02   16.59
  -4  -2  21   -4.29   16.72
  -4  -2  20  240.49   31.90
  -4   2  20  244.90   31.10
  -4   2  20  226.01   24.99
  -4  -2  19  -11.99   18.69
  -4   2  19    5.75    9.76
  -4  -2  18   61.24   19.02
  -4   2  18   73.90   14.67
  -4   2  17  201.97   21.48
   4  -2 -16    4.76    4.26
  -4   2  16    8.39    4.68
  -4   2  16    2.43    8.46
   4  -2 -15   19.07    5.57
  -4   2  15   29.36   12.60
  -4   2  15   18.26    5.38
   4   2 -15   38.19   10.99
  -4   2  15    6.83    9.25
   4  -2 -14    5.45    7.62
   4  -2 -14    4.25    3.97
  -4   2  14    1.08    3.37
   4   2 -14    1.74    6.80
   4   2 -14   13.28    7.96
  -4   2  14    2.12    8.42
   4  -2 -13   13.64    6.91
   4  -2 -13    5.97    4.19
   4   2 -13   15.10    5.21
  -4   2  13   12.21    4.36
   4   2 -13    7.93    3.57
   4   2 -13    7.12    8.89
  -4  -2  13   10.73    8.37
   4   2 -13   14.87    7.06
  -4   2  13    3.92    6.67
   4  -2 -12   25.37    7.14
   4  -2 -12   18.61    4.97
   4   2 -12   23.20    5.15
   4   2 -12   18.29    3.95
  -4   2  12   20.06    4.82
   4   2 -12   14.91    7.67
   4   2 -12   29.56    7.61
  -4  -2  12   29.79    9.19
  -4   2  12   23.33    8.43
   4  -2 -11    3.92    6.84
   4  -2 -11    7.31    4.97
   4  -2 -11    0.87    2.95
  -4   2  11    0.89    2.87
   4   2 -11    4.64    3.51
   4   2 -11    2.34    2.37
  -4   2  11    6.10    4.46
  -4   2  11    1.63    5.52
   4   2 -11    1.45    5.19
   4   2 -11    6.11    6.07
  -4  -2  11    9.14    6.83
   4  -2 -10   44.17    9.10
   4  -2 -10   37.33    7.06
   4   2 -10   51.26    9.41
   4  -2 -10   40.93    5.56
   4   2 -10   26.71    4.66
  -4   2  10   15.87    4.96
   4   2 -10   24.82    3.73
  -4   2  10   34.81    5.24
   4   2 -10   43.34    7.93
   4   2 -10   33.71    7.29
  -4   2  10   37.87    7.53
  -4  -2  10   46.81    9.81
   4  -2  -9  199.99   16.37
   4   2  -9  171.90   15.39
   4  -2  -9  197.45   12.06
  -4   2   9  193.85   13.67
  -4   2   9  192.71   12.17
   4   2  -9  190.19   11.24
   4   2  -9  195.75   10.29
   4   2  -9  204.02   15.09
  -4   2   9  220.65   15.75
   4  -2  -9  209.33   14.80
  -4  -2   9  187.71   16.02
   4   2  -9  183.01   14.72
   4   2  -8  124.03   12.27
   4  -2  -8  151.12   12.83
   4  -2  -8  138.43    9.31
  -4   2   8  133.02   10.67
   4   2  -8  138.69    8.59
  -4   2   8  144.07    9.74
   4   2  -8  131.19   11.51
  -4   2   8  142.10   11.89
  -4  -2   8  131.96   12.88
   4  -2  -8  141.13   11.39
  -4   2   8  142.31   13.21
   4   2  -8  134.85   11.79
  -4   2   7 1847.51   70.45
  -4   2   7 1788.83   68.45
   4  -2  -7 1805.11   72.88
   4   2  -7 1748.79   72.69
   4  -2  -7 1776.11   68.25
   4   2  -7 1855.92   72.56
   4  -2  -7 1726.19   71.78
  -4  -2   7 1849.14   73.25
   4   2  -7 1779.93   71.25
   4   2  -7 1666.54   70.74
   4  -2  -7 1868.81   71.13
  -4   2   7 1810.55   73.27
  -4   2   7 1842.45   71.48
  -4   2   6 1007.63   40.05
   4   2  -6  995.32   37.41
   4  -2  -6 1026.79   43.16
   4   2  -6  935.80   42.74
   4  -2  -6  984.56   39.51
   4   2  -6 1047.99   42.94
   4  -2  -6  966.35   42.35
  -4   2   6 1056.00   43.89
   4   2  -6  981.81   41.44
  -4  -2   6  946.89   42.94
   4   2  -6  963.41   41.79
   4  -2  -6  980.77   41.47
   4   2  -5 1818.77   66.30
   4  -2  -5 1892.22   69.29
  -4   2   5 1818.28   69.22
  -4  -2   5 1864.57   72.19
   4   2  -5 1859.68   70.96
  -4   2   5 1787.73   72.07
   4   2  -5 1804.59   70.20
   4  -2  -5 1845.29   71.29
   4   2  -5 1841.30   71.46
   4   2  -5 1838.79   71.89
   4  -2  -5 1869.77   70.67
   4  -2  -5 1921.92   71.96
  -4  -2   4 1520.75   57.14
  -4   2   4 1579.19   59.07
  -4  -2   4 1557.08   60.97
   4   2  -4 1540.01   59.79
  -4   2   4 1554.68   60.98
   4   2  -4 1536.90   59.32
   4   2  -4 1583.21   60.27
   4  -2  -4 1516.38   59.98
   4  -2  -4 1578.52   60.41
   4  -2  -4 1589.45   59.74
  -4  -2   4 1573.78   61.55
   4   2  -4 1589.47   60.65
  -4   2   4 1572.25   61.60
  -4  -2   3  297.79   13.37
  -4   2   3  294.05   14.34
  -4  -2   3  303.67   15.47
   4  -2  -3  305.64   14.46
  -4   2   3  296.14   15.44
  -4   2   3  295.87   15.22
  -4  -2   3  299.54   15.18
   4   2  -3  299.18   13.79
   4   2  -3  301.84   14.26
  -4  -2   3  300.89   14.61
   4  -2  -3  299.82   14.41
  -4  -2   3  305.27   15.68
   4   2  -3  279.11   14.26
  -4   2   3  304.19   15.74
  -4   2   2   76.19    6.04
   4   2  -2   81.47    5.55
   4  -2  -2   83.53    5.61
  -4  -2   2   80.92    6.19
   4   2  -2   83.13    4.11
  -4  -2   2   84.29    5.81
   4   2  -2   79.06    4.76
   4  -2  -2   84.26    5.80
  -4   2   2   75.90    6.01
  -4  -2   2   77.94    6.16
  -4   2   2   79.94    6.62
   4   2  -2   63.15    5.15
   4  -2  -2   82.34    5.61
  -4  -2   2   78.84    5.45
  -4  -2   2   86.01    6.04
  -4  -2   1  994.16   38.02
  -4   2   1  988.62   37.84
  -4  -2   1  930.05   35.20
   4   2  -1  942.09   35.72
  -4  -2   1  980.85   35.87
   4   2  -1  964.20   37.62
  -4  -2   1  985.50   38.06
  -4   2   1 1038.23   38.33
  -4  -2   1  965.41   36.44
  -4   2   1 1025.81   38.78
   4  -2  -1  979.12   39.56
   4  -2  -1  984.06   37.47
   4   2  -1  963.57   37.31
  -4  -2   1  989.06   36.70
   4   2   0 6260.59  220.47
  -4  -2   0 6134.43  220.34
  -4  -2   0 6194.29  220.57
   4   2   0 6139.04  222.33
  -4  -2   0 6140.50  222.84
  -4  -2   0 6348.38  220.21
   4  -2   0 6286.25  223.55
  -4  -2   0 6001.57  222.35
  -4   2   0 6472.60  222.64
  -4  -2   0 6226.31  221.58
  -4   2   0 6327.99  221.56
  -4  -2   0 6271.99  219.70
  -4   2  -1 9625.23  335.07
   4   2   1 9029.33  335.13
   4  -2   1 9862.54  335.59
  -4  -2  -1 9104.25  333.90
  -4  -2  -1 9482.06  335.90
   4   2   1 9524.43  335.35
   4   2   1 9421.75  333.37
  -4  -2  -1 9462.02  333.51
  -4   2  -1 9535.89  334.23
  -4  -2  -1 9587.78  334.30
  -4  -2  -2 9775.86  344.91
   4   2   2 9882.89  344.80
   4   2   2 9784.89  345.58
   4  -2   2 9881.17  346.44
  -4  -2  -2 9616.54  344.89
  -4  -2  -2 9874.78  347.44
   4   2   2 9999.00  346.81
  -4   2  -2 9774.14  346.69
   4   2   2 9566.35  345.52
  -4  -2  -2 9684.71  345.61
  -4   2  -2 9574.96  345.45
   4  -2   2 9817.24  345.62
  -4  -2  -3  994.55   38.56
   4   2   3 1016.76   38.57
  -4  -2  -3 1008.24   41.09
   4   2   3  926.04   40.19
   4  -2   3  968.31   39.85
   4   2   3  974.73   38.45
  -4   2  -3  969.57   40.64
  -4  -2  -3  954.70   38.77
   4   2   3  984.32   38.99
  -4   2  -3 1006.77   39.74
   4  -2   3 1003.06   39.12
  -4  -2  -3  997.50   39.71
   4  -2   4   29.59    4.12
   4   2   4   34.05    4.27
   4   2   4   23.31    3.31
  -4  -2  -4   28.87    3.64
  -4  -2  -4   16.47    4.58
  -4   2  -4   26.13    5.16
   4   2   4   23.87    4.38
  -4  -2  -4   32.54    6.46
  -4  -2  -4   14.99    3.97
   4   2   4   25.18    3.68
  -4   2  -4   41.00    6.87
   4  -2   4   30.29    4.85
  -4  -2  -4   23.91    3.55
   4  -2   5  273.23   15.03
  -4   2  -5  281.98   16.98
  -4  -2  -5  256.20   16.54
   4   2   5  252.95   14.75
  -4  -2  -5  292.95   17.01
   4   2   5  268.21   15.54
  -4  -2  -5  269.10   14.11
   4   2   5  271.74   14.14
   4  -2   5  277.74   16.13
   4   2   5  281.65   14.66
  -4   2  -5  276.85   17.86
  -4  -2  -5  279.38   16.36
  -4  -2  -5  282.44   14.22
  -4  -2  -6  223.98   16.44
  -4   2  -6  239.11   16.59
   4  -2   6  260.63   15.11
   4   2   6  245.89   14.88
  -4   2  -6  247.29   12.31
   4   2   6  277.90   15.62
  -4  -2  -6  230.00   13.26
   4   2   6  253.15   13.62
  -4  -2  -6  246.46   16.42
   4   2   6  237.38   14.10
   4  -2   6  260.09   16.12
  -4   2  -6  221.49   17.20
  -4  -2  -6  227.13   16.08
  -4  -2  -6  239.34   13.82
   4  -2   7 1118.24   47.46
  -4  -2  -7 1147.47   50.47
  -4   2  -7 1097.36   50.12
   4   2   7 1106.08   47.46
  -4  -2  -7 1078.04   45.08
   4   2   7 1116.05   45.22
  -4   2  -7 1115.06   43.23
   4   2   7 1216.58   47.75
  -4  -2  -7 1078.34   48.34
   4  -2   7 1116.86   48.89
   4   2   7 1120.14   46.62
  -4   2  -7 1078.55   51.31
  -4  -2  -7 1103.70   49.65
  -4  -2  -7 1085.08   45.78
   4   2   8   36.22    5.08
  -4  -2  -8   35.98    5.43
  -4   2  -8   32.36    4.51
  -4  -2  -8   37.72    8.20
   4   2   8   49.67    7.31
   4   2   8   46.82    7.61
  -4  -2  -8   39.00   10.61
  -4   2  -8   27.54    9.21
   4  -2   8   48.66    7.47
  -4  -2  -8   42.04    9.68
  -4   2  -8   33.58   10.49
   4   2   8   55.74    7.41
   4  -2   8   33.23    7.52
  -4  -2  -8   43.89    6.75
  -4  -2  -9   21.29    4.72
   4  -2   9   30.90    7.00
   4   2   9   25.81    6.76
  -4   2  -9   32.07    4.94
  -4  -2  -9   14.93    7.08
   4   2   9   23.57    6.19
   4   2   9   23.78    6.23
  -4  -2  -9   30.59    9.86
  -4   2  -9   37.38   11.51
   4  -2   9   23.22    7.19
  -4  -2  -9   26.85    6.38
   4  -2  10  232.11   18.22
   4   2  10  220.85   17.87
  -4  -2 -10  250.40   15.30
  -4   2 -10  236.57   13.81
   4   2  10  258.43   16.93
  -4  -2 -10  268.70   19.46
  -4   2 -10  226.82   22.39
  -4  -2 -10  221.42   20.89
   4   2  10  252.29   18.00
   4  -2  10  224.01   18.74
  -4  -2 -10  239.32   16.49
   4   2  11  164.80   15.68
  -4  -2 -11  140.76   11.52
   4   2  11  151.57   13.20
   4  -2  11  122.15   14.40
  -4  -2 -11  145.94   15.76
   4   2  11  162.68   15.28
   4  -2  11  162.68   16.34
  -4   2 -11  142.42   19.53
  -4  -2 -11  153.34   13.49
   4  -2  12  515.16   30.31
   4   2  12  467.95   29.39
   4   2  12  435.11   25.74
  -4  -2 -12  473.91   29.45
  -4  -2 -12  485.02   24.95
  -4  -2 -12  444.69   26.16
   4  -2  12  500.06   31.11
   4   2  12  478.74   28.96
  -4   2 -12  470.12   30.22
  -4  -2 -12  445.51   26.52
   4   2  13  -13.68   10.33
   4  -2  13   -1.94    9.34
   4   2  13   -6.73    6.56
  -4  -2 -13   -1.82   10.71
  -4  -2 -13    1.46    5.90
  -4  -2 -13   -1.16    4.52
   4   2  13    1.86    7.81
   4  -2  13    8.70    9.59
  -4  -2 -13    4.52    6.32
  -4   2 -13   -1.99    9.04
   4   2  14   38.01   10.53
   4  -2  14   55.73   12.98
   4  -2  14   35.44   12.22
   4   2  14   23.00   11.24
   4   2  14   29.20    8.48
   4   2  15  165.89   15.08
   4   2  15  137.79   17.93
   4  -2  15  168.69   19.59
   4  -2  15  145.37   19.40
   4   2  16   38.07    8.60
   4   2  16   18.09    9.54
   4  -2  16   33.80   12.20
   4   2  16   21.14   10.72
   4  -2  16   32.92   11.63
   4   2  17   14.30    9.83
   4   2  17   -2.47   12.03
   4  -2  17   -4.95   11.58
   4   2  18  199.62   20.94
   4  -2  18  225.13   23.78
   4  -2  18  238.79   23.40
   4   2  18  175.84   21.51
   4   2  19   20.77   10.71
   4  -2  19    2.96   11.07
   4   2  19   -2.69   11.67
   4  -2  19   10.81   11.91
   4   2  20  153.55   20.14
   4  -2  20  141.03   20.82
   4   2  20  108.82   17.63
   4  -2  20  145.95   20.24
   4   2  21   -2.78    9.44
   4  -2  21   -3.16   11.00
   4  -2  21  -17.36   12.56
   4   2  22    8.57   10.91
   4  -2  22   12.96   11.02
   4  -2  22   17.87   10.90
   4   2  22   17.69   11.73
  -4   3  23   20.11   12.30
  -4  -3  23   22.35   21.79
  -4   3  23   87.49   24.11
  -4  -3  23   45.54   19.39
   4  -3 -23   15.53   13.91
   4   3 -23   51.71   17.85
  -4   3  22   48.54   15.01
  -4  -3  22   79.01   22.89
  -4   3  22  139.98   26.82
  -4  -3  22   98.42   23.02
   4   3 -22  107.96   21.03
   4  -3 -22   98.03   19.50
  -4   3  21    9.34   10.87
  -4   3  21    7.70   16.45
  -4  -3  21   25.64   18.85
  -4   3  21   52.77   21.70
  -4  -3  21   12.16   16.12
   4   3 -21    7.44   12.32
   4  -3 -21   40.07   14.49
  -4   3  20   44.77   19.46
  -4  -3  20   70.67   24.16
  -4   3  20   71.52   15.96
   4   3 -20   64.30   18.44
   4  -3 -20  119.15   20.42
  -4   3  19   14.64    5.61
  -4  -3  19   28.06   18.22
  -4   3  19   39.44   19.37
  -4   3  19   25.62   12.16
   4  -3 -19   -3.36   11.41
  -4   3  18   22.65    6.56
  -4  -3  18   23.13   19.01
  -4   3  18   17.10   14.62
  -4   3  18   10.82    9.45
  -4   3  17  105.21   11.29
  -4  -3  17   95.73   21.58
  -4   3  17  115.16   16.84
  -4   3  17   92.35   15.22
  -4   3  16   85.19    9.73
  -4   3  16   84.27   14.73
  -4   3  16   94.21   16.68
   4  -3 -15   24.94    5.98
  -4   3  15   26.94   12.64
  -4   3  15   16.26    5.39
  -4   3  15   33.87   11.02
   4  -3 -14    3.52    6.72
   4  -3 -14    6.82    4.86
  -4   3  14    3.58    3.96
  -4   3  14   12.57    7.66
   4   3 -14    7.51    8.41
   4   3 -14   16.47    8.68
   4  -3 -13  116.93   12.99
   4  -3 -13  138.03   16.75
   4  -3 -13  114.39   10.44
  -4   3  13   97.70    9.97
   4   3 -13  137.58   14.44
   4   3 -13  112.54   14.18
  -4   3  13  154.44   16.03
   4  -3 -12   27.56    7.09
   4   3 -12   37.89   10.27
   4  -3 -12   35.82   10.01
   4  -3 -12   11.20    4.26
  -4   3  12    7.23    5.21
  -4   3  12   22.59    5.35
  -4   3  12   31.70    8.15
   4   3 -12   24.71    7.95
   4   3 -12   32.73    9.22
   4  -3 -11   36.59    7.74
   4   3 -11   59.19   10.68
   4  -3 -11   65.00   11.30
   4  -3 -11   57.93    7.01
  -4   3  11   59.69    6.98
  -4   3  11   40.78    7.49
  -4   3  11   49.42    9.06
   4   3 -11   58.79    9.67
   4   3 -11   49.80    9.36
   4  -3 -10   49.83    9.60
   4   3 -10   34.30    8.71
   4  -3 -10   37.39    7.14
   4  -3 -10   42.91    6.04
  -4   3  10   54.54    7.76
  -4   3  10   47.75    6.17
   4   3 -10   54.69    8.98
  -4   3  10   48.86    8.23
   4   3 -10   46.87    8.68
   4  -3  -9  314.08   21.52
   4   3  -9  319.14   21.44
   4  -3  -9  331.37   18.11
  -4   3   9  358.70   20.51
  -4   3   9  353.49   18.69
   4   3  -9  353.74   21.36
   4  -3  -9  363.97   20.49
   4   3  -9  318.40   20.38
  -4   3   9  308.88   20.04
  -4   3   8  398.84   20.12
  -4   3   8  370.04   21.37
   4   3  -8  344.86   22.06
   4  -3  -8  355.69   22.30
   4  -3  -8  363.49   19.42
  -4  -3   8  396.51   15.40
   4  -3  -8  392.12   22.37
  -4   3   8  378.16   21.68
   4  -3  -8  387.21   21.17
  -4   3   8  378.24   23.51
   4   3  -8  398.87   22.48
   4   3  -8  397.23   21.89
  -4   3   7  482.76   21.94
  -4   3   7  462.25   22.94
   4   3  -7  426.65   23.42
   4  -3  -7  428.10   23.34
  -4  -3   7  411.17   17.11
   4  -3  -7  405.74   20.60
   4   3  -7  395.90   22.38
   4  -3  -7  433.36   22.85
   4   3  -7  424.07   23.07
   4  -3  -7  433.54   21.96
   4   3  -7  413.41   22.08
  -4   3   7  423.52   24.19
  -4   3   6   96.07    8.12
   4  -3  -6  111.59    8.53
  -4  -3   6  115.30    6.52
   4   3  -6  105.26    8.85
  -4   3   6  130.91   10.99
   4   3  -6   99.68    9.42
   4   3  -6  126.53   10.14
   4  -3  -6  108.20    9.42
   4   3  -6  112.83    9.78
   4  -3  -6  119.11   10.11
   4  -3  -6   98.98    8.56
  -4  -3   5  564.94   23.59
  -4   3   5  596.25   26.36
   4   3  -5  579.25   25.75
   4   3  -5  573.22   27.07
  -4   3   5  562.06   27.63
   4   3  -5  609.66   26.93
   4  -3  -5  576.70   26.25
   4   3  -5  597.45   27.14
   4  -3  -5  601.63   26.86
   4  -3  -5  585.42   26.08
  -4   3   4  572.33   25.36
  -4  -3   4  546.59   23.39
  -4  -3   4  583.76   26.71
  -4   3   4  581.43   26.79
   4  -3  -4  565.18   24.71
   4   3  -4  573.73   24.04
  -4   3   4  512.83   25.70
   4   3  -4  560.46   25.42
   4  -3  -4  588.33   24.74
   4   3  -4  551.31   24.74
   4   3  -3   50.13    4.29
  -4   3   3   53.34    5.39
   4   3  -3   47.52    3.67
  -4  -3   3   52.11    5.14
   4  -3  -3   42.24    4.38
  -4  -3   3   54.72    5.67
  -4   3   3   48.63    5.53
  -4   3   3   44.62    5.17
  -4   3   3   38.64    5.01
   4   3  -3   48.40    5.03
   4   3  -3   44.58    3.84
  -4  -3   3   36.56    5.04
  -4   3   3   50.31    5.75
   4   3  -3   50.74    4.60
   4  -3  -3   41.47    4.13
  -4  -3   2  531.96   24.24
  -4   3   2  570.77   24.47
   4   3  -2  554.26   21.45
   4   3  -2  574.70   23.87
  -4  -3   2  516.67   24.36
   4   3  -2  569.61   22.69
  -4   3   2  574.06   24.38
   4   3  -2  569.21   21.76
  -4  -3   2  564.16   24.36
  -4   3   2  583.25   24.96
  -4   3   2  603.01   24.86
   4  -3  -2  571.62   23.49
   4   3  -2  574.00   23.41
   4   3  -2  600.46   23.52
  -4   3   1  461.78   19.19
  -4  -3   1  436.07   19.09
   4   3  -1  432.78   18.25
   4   3  -1  441.96   17.56
  -4  -3   1  439.17   20.68
   4   3  -1  452.58   19.88
  -4   3   1  427.94   19.55
   4  -3  -1  402.40   20.39
  -4   3   1  470.31   19.65
   4  -3  -1  427.81   18.58
   4   3  -1  444.65   18.49
  -4  -3   1  418.10   17.26
   4   3  -1  431.77   17.49
  -4  -3   0  574.66   23.40
   4   3   0  551.11   24.96
  -4  -3   0  555.58   26.01
  -4  -3   0  575.31   21.42
  -4  -3   0  552.98   23.82
   4  -3   0  583.35   25.17
  -4   3   0  595.29   24.34
   4   3   0  553.25   23.30
  -4  -3   0  591.24   23.64
  -4   3   0  536.85   23.15
  -4  -3   0  563.61   23.24
  -4   3   0  591.09   23.30
  -4  -3  -1 1609.53   60.96
  -4  -3  -1 1579.95   63.98
   4   3   1 1667.75   63.30
   4   3   1 1642.56   60.96
  -4  -3  -1 1629.84   60.75
   4  -3   1 1718.24   62.43
  -4  -3  -1 1619.42   60.29
  -4   3  -1 1622.02   62.02
  -4  -3  -1 1602.48   60.35
  -4  -3  -1 1632.36   60.81
  -4   3  -1 1668.43   60.44
  -4   3  -1 1584.46   60.59
  -4  -3  -2  912.92   40.01
   4   3   2  954.40   39.19
   4   3   2  908.01   36.66
  -4  -3  -2  901.88   36.72
  -4  -3  -2 1000.77   37.09
   4   3   2  904.18   36.81
  -4  -3  -2  892.75   35.61
   4  -3   2  961.05   37.74
  -4   3  -2  943.77   38.34
  -4   3  -2  910.84   36.62
  -4  -3  -2  918.31   36.81
   4   3   3 1105.96   46.66
  -4  -3  -3 1088.68   44.46
   4   3   3 1118.65   44.30
  -4  -3  -3 1175.44   44.75
  -4  -3  -3 1148.53   48.11
   4   3   3 1108.36   43.43
   4  -3   3 1161.77   45.41
  -4  -3  -3 1112.15   43.63
  -4   3  -3 1145.52   46.74
   4  -3   3 1135.37   44.06
  -4  -3  -3 1107.09   44.87
   4   3   3 1148.96   44.08
  -4   3  -3 1117.02   44.85
   4  -3   4  156.56    9.55
  -4   3  -4  155.56   11.10
  -4  -3  -4  149.86   11.00
   4   3   4  143.27    9.28
   4   3   4  144.47    9.38
  -4  -3  -4  154.06   10.12
  -4  -3  -4  154.24    9.80
   4   3   4  155.78   11.47
  -4  -3  -4  124.68   11.76
   4   3   4  144.58    8.58
   4  -3   4  150.75   10.55
  -4  -3  -4  137.78    9.66
  -4   3  -4  142.87   11.92
  -4  -3  -4  137.32    7.07
   4  -3   5   23.74    4.06
   4   3   5   13.05    3.73
   4   3   5   20.58    3.73
  -4  -3  -5   31.82    5.12
  -4  -3  -5   21.44    4.04
  -4  -3  -5   13.10    6.12
  -4   3  -5    7.95    5.41
   4   3   5   16.77    5.34
  -4  -3  -5   16.71    6.87
  -4   3  -5   23.66    7.61
  -4  -3  -5   17.02    5.39
   4   3   5   22.95    3.47
   4  -3   5   29.40    5.42
  -4  -3  -5   16.51    2.84
   4  -3   6   80.21    7.82
   4   3   6   80.11    7.74
  -4  -3  -6   71.93    7.58
   4   3   6   69.08    6.85
  -4  -3  -6   55.03    6.34
   4   3   6  109.06   10.00
  -4  -3  -6   74.17   10.07
  -4   3  -6   65.21    9.83
  -4  -3  -6   51.51    9.48
   4   3   6   67.96    6.56
   4  -3   6   87.67    8.98
  -4   3  -6   67.09   10.71
  -4  -3  -6   83.16    9.99
  -4  -3  -6   69.49    5.95
   4   3   7  919.25   40.58
   4  -3   7  907.63   40.46
  -4  -3  -7  984.10   40.93
  -4  -3  -7  889.73   39.12
   4   3   7  945.76   39.53
   4   3   7  895.06   41.83
  -4  -3  -7  907.92   44.01
  -4   3  -7 1005.11   45.01
  -4  -3  -7  959.61   44.13
  -4  -3  -7  843.41   42.14
   4   3   7  938.77   39.26
   4  -3   7  904.19   42.29
  -4   3  -7  981.94   46.58
  -4  -3  -7  937.66   38.05
  -4  -3  -8    1.07    3.63
   4   3   8    0.91    2.56
  -4   3  -8   -0.48    2.31
  -4  -3  -8    0.90    2.88
  -4   3  -8   -5.06    7.89
  -4  -3  -8    5.05    8.60
   4   3   8    6.96    4.79
   4  -3   8    3.42    4.79
  -4  -3  -8    2.97    7.76
   4   3   8   -2.54    4.95
   4   3   8    1.94    4.07
   4  -3   8   -4.25    5.84
  -4  -3  -8    2.89    7.57
  -4   3  -8   11.23   11.02
  -4  -3  -8   -2.33    3.15
   4  -3   9  433.59   25.04
   4   3   9  472.60   25.71
   4   3   9  446.88   25.53
  -4   3  -9  474.68   20.31
  -4  -3  -9  487.93   25.04
   4   3   9  448.42   23.26
  -4  -3  -9  476.42   23.48
  -4  -3  -9  471.04   28.17
  -4  -3  -9  429.25   27.78
   4  -3   9  439.96   27.01
   4   3   9  431.22   23.97
  -4   3  -9  380.50   29.43
  -4  -3  -9  439.96   22.67
   4  -3  10  316.57   21.11
   4   3  10  367.18   22.10
  -4  -3 -10  305.30   19.59
   4   3  10  284.21   17.98
  -4  -3 -10  320.16   18.48
   4   3  10  331.39   21.04
  -4  -3 -10  277.89   22.46
  -4   3 -10  330.15   26.58
   4  -3  10  324.91   22.79
   4   3  10  324.92   20.29
  -4  -3 -10  313.84   18.54
  -4  -3 -11    1.09    3.61
  -4  -3 -11    1.33    5.09
   4   3  11    5.57    3.47
   4   3  11    1.46    6.55
  -4  -3 -11   10.98   11.14
   4   3  11   11.47    7.15
   4  -3  11    1.90    7.83
   4   3  11    3.24    7.03
   4  -3  11   -3.21    7.08
  -4  -3 -12    9.25    4.78
   4   3  12    7.08    4.32
  -4  -3 -12   15.57    6.53
   4   3  12    7.60    6.71
   4  -3  12   -3.50   10.03
   4   3  12    1.77    7.43
   4   3  12    6.32    7.19
   4  -3  12   30.89   10.53
   4   3  13   -3.14    7.84
   4  -3  13   -3.80   11.19
   4   3  13   -5.75    9.44
   4   3  13   17.24    8.50
   4  -3  13    8.85    9.44
   4   3  14   85.64   12.07
   4   3  14   68.82   12.10
   4  -3  14   96.71   14.96
   4   3  14   77.90   13.74
   4  -3  14   69.38   13.77
   4   3  15  141.55   16.24
   4  -3  15  174.97   19.78
   4  -3  15  139.28   17.25
   4   3  15  150.44   18.09
   4   3  15  145.81   15.23
   4   3  16  287.85   21.73
   4   3  16  315.35   24.44
   4  -3  16  290.01   26.08
   4   3  16  333.99   26.39
   4  -3  16  281.52   24.86
   4   3  17  124.08   13.89
   4   3  17  109.21   15.93
   4  -3  17  121.63   17.86
   4   3  17   79.88   15.27
   4  -3  17   72.92   14.97
   4   3  18   21.03   10.93
   4  -3  18    2.89   11.03
   4   3  18   10.09   10.77
   4  -3  18    2.55   10.51
   4  -3  19   11.98   11.44
   4   3  19  -10.51   12.11
   4  -3  19   13.25   11.68
   4  -3  20   40.27   14.36
   4   3  20   40.87   13.00
   4  -3  20   44.03   13.81
   4  -3  21    6.37   10.83
   4  -3  21    2.83   10.60
   4   3  21    2.80   10.01
   4  -3  22   65.36   15.44
   4  -3  22   58.34   14.90
   4   3  22   66.03   15.82
  -4   4  23   23.64   19.69
  -4  -4  23   31.75   19.83
   4  -4 -23   15.05   11.76
   4   4 -23   46.49   16.29
  -4   4  22   -3.19   12.19
  -4  -4  22   -4.33   16.89
  -4   4  22   15.56   17.15
  -4  -4  22   -3.93   15.92
   4   4 -22    7.51   12.76
   4  -4 -22   10.97   11.75
  -4   4  21   64.61   16.52
  -4  -4  21   21.23   18.20
  -4   4  21   49.73   18.93
  -4  -4  21   65.96   20.57
   4   4 -21   50.72   17.02
   4  -4 -21   35.34   14.14
  -4   4  20   26.29   18.05
  -4  -4  20    7.65   17.12
  -4   4  20    8.10    6.33
  -4  -4  20   16.50   16.71
  -4   4  20   11.81   11.51
   4   4 -20   17.39   13.56
   4  -4 -20   23.81   12.99
  -4   4  19   67.91   10.24
   4  -4 -19   68.40   16.79
   4   4 -19   49.77   15.89
  -4  -4  19   44.06   19.12
  -4   4  19   73.34   15.07
  -4   4  18    3.07    4.78
  -4   4  18    5.07   11.69
   4   4 -18   -3.15   10.41
   4  -4 -18   -3.10    9.67
  -4  -4  18    3.86   15.63
  -4   4  18    2.68   10.02
  -4   4  17   39.97    7.61
  -4   4  17   30.30   12.83
   4  -4 -17   29.41   13.05
   4   4 -17   74.29   15.60
  -4  -4  17   48.14   18.76
  -4   4  17   40.62   12.60
  -4   4  16  205.93   16.42
  -4   4  16  193.26   22.52
   4   4 -16  270.31   25.48
   4  -4 -16  216.05   23.33
  -4  -4  16  278.66   30.48
  -4   4  16  217.91   21.53
   4  -4 -15    5.18    9.68
   4   4 -15    7.79    8.82
  -4   4  15   -1.38    4.57
  -4  -4  15    3.34   14.27
  -4   4  15   -4.47    7.80
  -4   4  15   -7.50   11.86
   4  -4 -14   19.26    9.57
   4   4 -14   12.02    9.18
  -4   4  14    5.29    4.26
   4   4 -14    7.41    8.17
  -4   4  14    8.30    8.71
   4  -4 -13   80.06   10.93
   4   4 -13   86.05   13.64
   4  -4 -13  106.42   14.76
   4  -4 -13  102.89   10.46
  -4   4  13  106.98   12.28
  -4   4  13   92.16   10.13
  -4   4  13   83.88   12.19
   4   4 -13  114.40   13.87
   4   4 -13  129.67   14.91
   4  -4 -12  172.19   17.83
   4   4 -12  166.94   17.16
   4  -4 -12  179.05   13.49
  -4   4  12  160.42   15.12
  -4   4  12  182.85   13.73
   4   4 -12  152.24   15.70
   4  -4 -12  143.02   13.98
  -4   4  12  189.91   16.65
   4   4 -12  152.99   15.45
   4  -4 -11   43.21    7.57
   4   4 -11   36.35    9.18
   4  -4 -11   27.45    8.55
   4  -4 -11   41.07    6.83
  -4   4  11   41.93    7.86
  -4   4  11   40.37    6.93
   4   4 -11   41.53    8.61
   4   4 -11   39.06    8.99
  -4   4  11   42.85    8.41
   4  -4 -10  144.19   14.51
   4   4 -10  162.94   15.04
   4  -4 -10  162.19   12.14
  -4   4  10  180.88   14.41
  -4   4  10  136.16   11.69
   4   4 -10  149.12   14.81
   4   4 -10  171.80   14.36
   4  -4 -10  138.19   12.57
  -4   4  10  166.70   14.28
  -4   4   9    1.34    4.17
   4  -4  -9    7.24    5.87
   4  -4  -9    1.12    3.49
   4   4  -9    4.34    4.79
  -4   4   9    4.26    3.32
   4  -4  -9    6.92    3.36
   4   4  -9    5.23    4.89
   4  -4  -9   10.49    5.11
  -4   4   9    5.21    4.76
   4   4  -9    1.22    5.12
   4   4  -9    1.41    5.50
  -4   4   8  209.41   15.19
  -4   4   8  224.63   14.66
   4  -4  -8  216.67   13.92
   4   4  -8  197.64   15.09
   4  -4  -8  191.65   14.99
   4   4  -8  196.85   15.44
   4   4  -8  222.48   14.89
   4  -4  -8  211.03   14.10
  -4   4   8  200.00   16.42
   4  -4  -8  204.05   14.75
   4   4  -8  209.25   14.96
  -4   4   7   -1.98    3.09
   4  -4  -7   -0.91    3.25
   4  -4  -7   -2.16    3.94
   4  -4  -7    4.50    3.21
   4   4  -7    1.11    3.66
  -4  -4   7    2.78    3.16
   4   4  -7    1.87    3.93
   4   4  -7   -2.35    4.85
  -4   4   7    1.36    4.49
   4  -4  -7    3.99    3.65
   4   4  -7   -1.02    3.98
   4   4  -6   11.05    3.89
   4   4  -6   15.73    5.57
  -4   4   6   16.77    4.08
   4  -4  -6   19.79    3.99
   4   4  -6   12.26    4.13
  -4   4   6   21.34    5.42
  -4  -4   6   16.61    4.11
   4  -4  -6   21.69    4.81
   4  -4  -6   14.27    4.23
   4   4  -6   19.27    4.30
   4   4  -5 1606.72   60.04
  -4   4   5 1629.19   64.48
   4   4  -5 1691.71   63.67
   4  -4  -5 1634.44   62.80
  -4  -4   5 1600.63   61.77
   4   4  -5 1630.56   62.35
  -4   4   5 1607.90   65.40
   4   4  -5 1621.33   64.76
   4   4  -5 1629.03   63.02
   4  -4  -5 1606.63   62.62
   4   4  -4   27.06    3.49
  -4   4   4   28.74    4.63
   4   4  -4   24.29    3.50
   4  -4  -4   21.81    3.46
  -4   4   4   18.70    4.24
  -4  -4   4   29.46    5.53
  -4   4   4   21.16    4.01
   4   4  -4   29.98    5.46
   4  -4  -4   24.13    3.52
   4   4  -4   18.57    3.33
   4   4  -3  156.91   10.61
   4   4  -3  157.73    8.38
  -4   4   3  171.22   11.29
   4   4  -3  176.32   10.21
  -4   4   3  156.88   11.30
   4   4  -3  171.67    9.62
   4  -4  -3  190.34   10.49
  -4   4   3  192.78   11.69
  -4  -4   3  184.68   11.34
  -4   4   3  192.51   10.80
  -4  -4   3  163.43   11.41
   4   4  -3  169.82    9.46
   4  -4  -3  170.90    9.41
   4   4  -3  167.94    9.44
   4  -4  -3  196.18    9.75
   4   4  -2  136.90    8.71
   4   4  -2  138.27    9.37
   4   4  -2  150.05    8.61
  -4  -4   2  145.95    9.17
   4   4  -2  131.90    6.03
  -4   4   2  130.16    8.81
  -4   4   2  151.47    9.67
  -4  -4   2  134.06   10.68
  -4   4   2  140.96    8.71
   4  -4  -2  153.45    8.09
   4   4  -2  143.34    7.89
  -4  -4   2  131.33    8.97
  -4   4   2  132.92    8.90
   4   4  -1   77.63    5.67
   4   4  -1   89.87    7.66
   4   4  -1   94.22    6.67
  -4   4   1   89.72    6.98
   4  -4  -1   86.63    7.33
  -4  -4   1   75.64    8.85
  -4   4   1   96.20    6.74
   4   4  -1   84.91    5.84
  -4   4   1   89.31    6.27
  -4  -4   1   91.99    6.47
  -4   4   0   29.54    3.18
  -4   4   0   28.90    3.33
  -4  -4   0   35.18    3.68
  -4   4   0   20.56    2.88
  -4  -4   0   25.89    3.21
   4   4   0   26.03    3.52
   4   4   0   26.13    3.74
  -4   4   0   20.23    3.31
   4   4   0   32.44    5.14
  -4  -4   0   28.40    3.67
  -4  -4   0   33.48    7.01
   4  -4   0   22.53    4.01
  -4   4   0   24.03    3.98
   4   4   0   23.98    2.43
   4   4   1  405.22   22.25
  -4  -4  -1  458.20   20.83
   4   4   1  438.91   20.46
   4   4   1  478.83   21.09
  -4  -4  -1  468.40   18.89
  -4  -4  -1  466.80   24.53
   4  -4   1  454.57   21.23
  -4   4  -1  468.35   21.47
  -4  -4  -1  450.07   19.69
  -4  -4  -1  471.03   19.41
  -4   4  -1  447.22   19.55
  -4   4  -1  459.66   19.21
  -4  -4  -2  113.69    8.03
   4   4   2  114.27    9.90
   4   4   2  111.29    7.95
   4   4   2  108.68    8.14
   4  -4   2  111.20    8.12
  -4  -4  -2   84.54   10.54
  -4  -4  -2  114.17    6.65
  -4   4  -2  115.90    9.28
  -4   4  -2  101.78    7.46
  -4  -4  -2   95.13    7.24
   4   4   3 1103.63   45.48
  -4  -4  -3 1094.85   42.46
   4   4   3 1115.50   42.64
  -4  -4  -3 1038.59   46.62
   4   4   3  971.75   40.49
   4  -4   3 1019.51   42.36
  -4  -4  -3 1034.69   40.37
  -4   4  -3 1037.93   44.57
   4   4   3 1042.86   40.93
  -4  -4  -3 1040.76   42.32
   4  -4   3 1021.04   40.92
  -4   4  -3  998.81   42.09
  -4   4  -4   38.59    6.69
  -4  -4  -4   33.11    6.12
  -4  -4  -4   31.04    4.60
   4   4   4   41.70    5.11
  -4  -4  -4   30.67    4.89
   4   4   4   43.23    7.12
   4   4   4   27.96    3.82
  -4  -4  -4   24.10    7.73
  -4   4  -4   15.24    6.67
   4  -4   4   21.69    4.62
  -4  -4  -4   28.59    5.12
   4  -4   4   19.37    3.74
   4   4   4   31.22    4.10
   4   4   5  467.07   24.40
  -4  -4  -5  394.53   20.88
   4   4   5  398.07   20.45
  -4  -4  -5  407.66   20.72
  -4  -4  -5  447.44   25.78
   4   4   5  410.25   18.69
   4  -4   5  452.72   22.41
  -4   4  -5  433.97   25.14
  -4  -4  -5  403.36   21.00
   4  -4   5  408.63   19.78
   4   4   5  411.16   19.85
  -4   4  -5  396.03   22.65
  -4  -4  -5  396.54   22.63
  -4   4  -6 1478.19   62.56
   4   4   6 1450.74   62.62
  -4  -4  -6 1480.88   64.41
   4   4   6 1415.86   56.41
   4   4   6 1501.33   58.99
  -4  -4  -6 1488.79   59.64
  -4  -4  -6 1601.03   59.73
  -4  -4  -6 1436.46   60.01
   4  -4   6 1501.06   60.97
  -4   4  -6 1535.46   65.22
   4  -4   6 1457.89   58.39
   4   4   6 1477.06   58.60
  -4  -4  -6 1356.36   61.46
  -4   4  -7  147.72   15.10
  -4  -4  -7  164.43   15.65
  -4  -4  -7  133.46   11.07
  -4  -4  -7  139.38   10.79
   4   4   7  108.23    9.68
  -4  -4  -7  137.61   15.26
   4   4   7  116.50   12.25
   4   4   7  125.51    9.24
  -4  -4  -7  148.14   13.50
  -4   4  -7  133.89   15.91
   4  -4   7  132.88   12.30
   4  -4   7  119.93   10.25
   4   4   7  140.90   10.85
   4   4   8 1262.02   55.57
  -4  -4  -8 1250.51   52.30
  -4  -4  -8 1174.45   52.51
   4   4   8 1306.45   52.46
  -4  -4  -8 1291.00   58.28
   4   4   8 1228.80   50.54
   4  -4   8 1193.70   54.91
  -4   4  -8 1264.31   60.00
   4  -4   8 1238.72   52.48
   4   4   8 1284.87   52.92
   4   4   9  410.41   24.69
  -4  -4  -9  350.37   21.54
  -4  -4  -9  376.74   21.17
   4   4   9  370.59   20.96
  -4  -4  -9  345.81   25.84
   4   4   9  338.57   20.19
  -4   4  -9  407.75   29.47
   4  -4   9  385.02   24.43
   4  -4   9  406.02   22.42
   4   4   9  388.38   22.29
   4   4  10  278.45   20.48
   4   4  10  266.21   17.30
   4  -4  10  286.65   21.35
  -4   4 -10  291.92   26.27
   4  -4  10  257.14   18.52
   4   4  10  278.95   19.07
  -4  -4 -10  278.57   18.77
  -4  -4 -10  264.47   17.28
   4   4  10  267.41   17.22
   4   4  11  480.32   28.41
  -4  -4 -11  433.80   25.58
  -4  -4 -11  444.01   24.64
   4   4  11  423.86   24.46
   4   4  11  439.24   25.28
   4  -4  11  428.87   28.80
   4   4  11  508.26   28.07
   4  -4  11  498.24   27.77
   4   4  12    1.28    3.98
  -4  -4 -12   -2.92    5.57
   4   4  12   -2.81    7.02
   4  -4  12    8.25    8.51
   4   4  12    3.39    8.14
   4  -4  12    3.35    6.78
   4   4  12    1.73    6.60
   4   4  13  106.77   11.21
   4   4  13   98.93   13.04
   4  -4  13   73.27   13.56
   4  -4  13  103.85   13.66
   4   4  13  115.28   13.94
   4   4  13  133.60   15.45
   4   4  14  114.55   11.94
   4   4  14  132.71   14.90
   4  -4  14  111.30   16.64
   4  -4  14  115.69   14.87
   4   4  14  106.33   14.85
   4   4  14  153.57   15.73
   4  -4  15   32.64   11.49
   4   4  15   43.99   10.54
   4  -4  15   29.34   10.92
   4   4  15   46.77   10.40
   4  -4  16   89.97   15.61
   4   4  16   61.98   12.42
   4  -4  16   53.37   12.23
   4   4  16   68.67   11.75
   4  -4  17   11.10   11.86
   4   4  17   34.89   11.05
   4  -4  17   21.12   10.04
   4   4  17   15.51    8.84
   4  -4  18   11.58   11.06
   4  -4  18    2.46    8.58
   4   4  18    2.43    9.66
   4   4  18   -5.89    8.39
   4  -4  19   36.01   12.69
   4   4  19   50.37   12.96
   4  -4  19   43.68   12.44
   4  -4  20   -6.21   12.57
   4   4  20    2.61    9.32
   4  -4  20    2.66    9.25
   4  -4  21   12.75   11.11
   4  -4  21   19.21   11.91
   4   4  21   -2.69    9.84
   4  -4  22   19.70   11.43
   4   4  22   33.06   13.27
  -4  -5  22    4.25   18.14
  -4   5  21   -3.54    5.35
  -4  -5  21    4.18   18.13
  -4   5  20   22.64    7.24
  -4  -5  20   28.50   17.69
   4   5 -20   36.28   13.87
   4   5 -19   47.14   14.13
  -4   5  19   32.26    7.83
  -4   5  19   33.62   13.70
  -4  -5  19   35.55   19.75
  -4   5  19   67.55   20.09
  -4   5  18   72.41   19.67
  -4   5  18   71.04   10.71
  -4   5  18   58.60   16.44
   4   5 -18   68.46   15.38
  -4  -5  18   68.90   19.01
  -4   5  18   53.27   14.27
  -4   5  17   19.31    6.67
  -4   5  17   13.87   13.34
   4   5 -17   22.41   12.17
  -4  -5  17   40.51   17.70
  -4   5  17   10.09    9.45
  -4   5  16   51.63    8.92
  -4   5  16   16.51   13.30
   4   5 -16   83.87   16.66
   4  -5 -16   21.09   11.17
  -4  -5  16   84.58   21.85
  -4   5  16   38.06   11.07
  -4   5  15    3.01    4.84
  -4   5  15   19.11   13.29
   4   5 -15    4.87    9.10
   4  -5 -15    2.46    7.92
  -4  -5  15    6.73   14.12
  -4   5  15   11.12    8.13
  -4   5  14  356.95   24.37
  -4   5  14  314.81   21.24
  -4   5  14  374.98   30.61
  -4  -5  14  286.40   29.88
   4  -5 -14  346.76   26.32
   4   5 -14  276.19   24.15
  -4   5  14  342.11   25.16
   4  -5 -13  112.10   12.41
   4   5 -13  117.18   14.65
   4  -5 -13   83.85   13.61
  -4   5  13  103.61   12.99
  -4   5  13  113.68   11.42
  -4  -5  13  107.80   20.16
  -4   5  13  117.59   14.30
   4  -5 -12  144.94   16.10
   4   5 -12  106.53   13.79
  -4   5  12  114.15   13.23
  -4   5  12  133.74   12.44
   4  -5 -12  145.31   12.58
  -4   5  12  122.00   14.06
   4  -5 -12  124.78   12.77
   4   5 -12  153.27   15.99
   4   5 -11   48.92    9.58
   4  -5 -11   44.67    9.66
   4  -5 -11   39.69    7.05
  -4   5  11   36.16    8.32
  -4   5  11   36.64    8.62
   4   5 -11   32.32    9.38
  -4   5  11   40.35    7.31
   4  -5 -11   40.85    6.96
   4  -5 -10  730.60   33.40
  -4   5  10  766.06   36.53
  -4   5  10  708.97   33.83
   4  -5 -10  655.89   35.16
   4   5 -10  605.48   34.14
   4   5 -10  629.26   33.68
   4  -5 -10  687.92   33.10
   4   5 -10  687.23   36.27
  -4   5  10  638.39   34.28
   4  -5  -9   22.40    5.55
  -4   5   9   30.95    6.11
  -4   5   9   32.78    7.69
   4  -5  -9   28.73    5.41
   4   5  -9   21.41    5.99
   4  -5  -9   25.45    7.08
   4   5  -9   33.87    6.68
   4   5  -9   37.96    7.86
   4  -5  -8  194.60   13.55
  -4   5   8  201.96   15.36
  -4   5   8  158.78   13.04
   4   5  -8  192.38   13.82
   4  -5  -8  168.37   12.31
   4  -5  -8  152.71   13.12
   4   5  -8  186.72   13.47
   4   5  -8  185.79   15.48
   4   5  -8  153.83   12.72
  -4   5   8  195.38   16.27
   4   5  -7    3.60    4.03
   4   5  -7    1.25    5.91
  -4   5   7    7.12    5.55
   4   5  -7   -1.01    3.62
   4  -5  -7    0.86    2.23
  -4   5   7    4.59    3.68
   4   5  -7    5.60    3.85
   4  -5  -7   -3.60    4.15
   4  -5  -7   -0.98    4.32
  -4   5   6  179.94   12.81
   4   5  -6  166.25    8.80
   4  -5  -6  150.85   10.40
   4   5  -6  136.94   10.74
   4   5  -6  155.72   10.73
   4  -5  -6  161.24   10.66
  -4   5   6  177.52   13.65
   4   5  -6  152.68   13.03
   4   5  -6  147.29   10.64
  -4   5   5  539.73   25.80
   4   5  -5  512.03   21.39
   4  -5  -5  514.07   22.88
  -4   5   5  492.12   22.82
   4  -5  -5  487.42   22.03
   4   5  -5  459.89   22.05
   4   5  -5  465.62   21.75
   4   5  -5  479.31   25.00
  -4   5   5  465.24   25.13
   4   5  -4  112.98    7.30
   4   5  -4  102.57    9.63
  -4   5   4  128.69   10.52
   4   5  -4  138.93    8.90
  -4   5   4  121.74   10.40
   4  -5  -4  130.80    8.66
  -4  -5   4  115.37   10.73
  -4   5   4  128.80    8.82
   4  -5  -4  122.76    7.79
   4   5  -4  124.01    7.85
   4  -5  -4  126.11    7.76
   4   5  -3   30.42    5.39
   4   5  -3   33.98    4.37
  -4   5   3   23.86    5.08
  -4   5   3   29.92    4.95
   4   5  -3   23.01    2.42
  -4  -5   3   34.45    7.27
   4   5  -3   31.23    4.70
  -4   5   3   32.04    4.33
   4  -5  -3   30.04    3.38
   4   5  -3   32.12    3.37
   4   5  -2  123.46    8.53
  -4   5   2   96.38    9.36
   4   5  -2  107.91    8.95
  -4   5   2  121.90    8.91
  -4  -5   2  102.80    8.05
  -4   5   2  130.39    8.61
  -4  -5   2  126.07   11.80
  -4   5   2  113.25    7.66
   4   5  -2  115.15    8.50
   4   5  -2  109.91    6.63
  -4   5   1  143.57    7.69
  -4  -5   1  136.22    7.76
  -4  -5   1  130.14    8.41
  -4   5   1  133.21    8.30
   4   5  -1  150.80    8.96
   4   5  -1  142.95   10.85
   4   5  -1  153.45    9.68
  -4  -5   1  123.98    8.16
  -4   5   1  135.36    9.30
  -4   5   1  115.07    7.95
  -4  -5   1  138.66   12.53
  -4   5   1  132.23    8.77
   4   5  -1  137.32    8.47
  -4  -5   0   -0.79    2.01
  -4   5   0    1.48    1.86
  -4  -5   0   -0.87    1.52
  -4   5   0    0.43    1.37
   4   5   0   -0.63    2.24
   4   5   0   -1.46    2.34
  -4   5   0   -0.66    2.29
   4   5   0    2.97    4.16
  -4  -5   0   -1.13    1.84
   4  -5   0   -1.48    2.99
  -4  -5   0    8.71    7.26
  -4   5   0    0.64    3.04
   4   5   0    3.04    2.40
   4   5   1   55.35    5.99
   4   5   1   70.03    6.59
  -4  -5  -1   55.08    4.56
   4   5   1   63.05    7.93
   4  -5   1   54.08    5.98
  -4  -5  -1   53.18    3.95
  -4  -5  -1   70.74   10.64
  -4   5  -1   63.42    6.85
  -4  -5  -1   54.96    4.42
  -4  -5  -1   58.47    5.23
  -4   5  -1   55.56    4.35
  -4   5  -1   61.74    5.21
   4   5   2 1739.32   65.54
   4   5   2 1763.08   65.98
   4  -5   2 1726.06   64.82
  -4  -5  -2 1651.76   70.50
   4   5   2 1714.70   68.64
  -4  -5  -2 1725.37   65.51
  -4  -5  -2 1616.15   61.29
  -4   5  -2 1695.07   66.74
  -4  -5  -2 1608.77   63.64
  -4   5  -2 1681.64   63.72
  -4   5  -2 1696.58   62.16
  -4  -5  -2 1636.41   62.05
   4   5   3  464.95   24.30
   4   5   3  519.88   25.04
  -4  -5  -3  486.16   29.37
   4  -5   3  535.83   24.50
   4   5   3  581.56   28.50
  -4  -5  -3  518.03   24.78
  -4   5  -3  568.94   27.81
  -4   5  -3  515.61   24.34
  -4  -5  -3  530.11   24.53
   4   5   4 2273.60   86.52
   4   5   4 2270.14   85.87
   4   5   4 2349.08   90.14
  -4  -5  -4 2181.22   85.43
  -4  -5  -4 2301.14   92.37
   4  -5   4 2220.75   85.37
   4   5   4 2160.76   82.32
  -4   5  -4 2297.55   89.63
   4  -5   4 2297.08   83.17
  -4  -5  -4 2168.73   85.89
   4   5   4 2192.84   83.08
  -4   5  -4 2196.30   86.04
   4   5   5  356.60   19.69
   4   5   5  405.06   23.69
  -4  -5  -5  366.44   19.84
  -4  -5  -5  351.32   21.42
  -4   5  -5  393.47   22.48
   4   5   5  354.63   16.85
  -4  -5  -5  378.63   25.86
   4  -5   5  372.63   20.41
  -4   5  -5  384.64   24.67
   4   5   5  379.10   18.14
   4  -5   5  357.59   17.91
   4   5   6 1023.15   43.76
   4   5   6  954.21   46.97
  -4  -5  -6 1044.74   43.95
  -4  -5  -6 1016.34   46.85
  -4  -5  -6  985.63   50.01
   4   5   6 1028.99   39.99
  -4   5  -6 1038.91   49.64
   4  -5   6  988.61   44.41
   4   5   6  996.23   41.84
   4  -5   6 1028.45   41.83
   4   5   7  405.14   21.91
   4   5   7  396.84   18.74
  -4  -5  -7  381.55   21.53
   4   5   7  428.53   25.80
   4  -5   7  383.77   23.00
  -4   5  -7  453.87   29.29
   4  -5   7  402.25   20.73
   4   5   7  396.70   20.74
   4   5   8   46.25    7.06
  -4  -5  -8   60.42    8.66
   4   5   8   72.26   11.71
  -4  -5  -8   72.07    8.23
   4  -5   8   74.75   10.67
  -4   5  -8   98.01   17.19
   4   5   8   70.11    8.19
   4  -5   8   60.71    7.73
  -4  -5  -9  100.29   11.12
  -4  -5  -9  108.32   10.34
   4   5   9  103.69   10.10
   4   5   9  108.12   13.36
   4  -5   9   89.44   11.68
  -4   5  -9   78.84   16.56
   4  -5   9   87.55    9.73
   4   5   9  114.63   10.83
  -4  -5 -10  256.22   17.54
  -4  -5 -10  179.84   14.76
   4   5  10  228.52   15.88
   4   5  10  224.81   19.17
   4  -5  10  238.24   19.17
   4   5  10  209.52   15.95
   4  -5  10  191.93   15.55
   4   5  11   33.67   11.23
  -4  -5 -11   33.08    8.21
   4   5  11   18.39    5.76
   4  -5  11   13.20    8.98
   4  -5  11   35.55    8.34
   4   5  11   23.10    7.34
   4   5  12   29.01   10.72
   4   5  12   30.24    6.70
   4  -5  12   28.59   10.38
   4   5  12   34.81    8.62
   4  -5  12   42.27    9.44
   4   5  13   35.72   10.58
   4   5  13   33.07    7.22
   4  -5  13   43.92   11.43
   4  -5  13   47.85    9.97
   4   5  13   39.50    8.68
   4   5  14   34.54   10.11
   4   5  14   50.93    8.53
   4  -5  14   35.16   11.05
   4   5  14   42.42    9.53
   4  -5  14   33.20    8.85
   4   5  15    2.08    8.25
   4   5  15   12.40    5.67
   4  -5  15   12.42    9.69
   4   5  15   -1.97    7.36
   4  -5  15   11.89    7.88
   4   5  16  124.71   15.66
   4   5  16  120.40   13.02
   4  -5  16   70.76   14.94
   4  -5  16  120.10   15.95
   4   5  16  108.31   15.10
   4  -5  17   -2.75    9.81
   4   5  17   -2.15    8.53
   4   5  17   -2.19    7.63
   4  -5  18   40.12   13.84
   4   5  18   43.43   11.81
   4   5  18   36.60   10.93
   4  -5  19    8.92   11.12
   4   5  19    4.38    9.51
   4  -5  20    6.14   10.15
   4  -5  21    3.16   11.80
  -4  -6  21   24.30   19.72
  -4   6  21   11.36    7.09
  -4  -6  20   23.84   18.59
  -4   6  20   11.14    6.32
  -4  -6  19   -7.74   17.33
  -4   6  19    3.65    5.50
  -4   6  19    3.03   13.57
  -4  -6  18    7.50   17.04
  -4   6  18   23.15    7.74
  -4   6  18   -3.02   14.49
  -4  -6  17   65.05   19.17
  -4   6  17   41.83    8.62
  -4   6  17   38.88   15.01
  -4  -6  16   34.71   16.95
  -4   6  16   43.89    8.83
  -4   6  16   29.62   14.30
  -4   6  15  250.08   21.27
  -4   6  15  234.24   18.25
  -4  -6  15  166.48   24.79
  -4   6  15  219.07   20.91
  -4   6  15  248.83   26.41
  -4   6  14   32.67    9.22
  -4   6  14   33.35    7.72
  -4  -6  14   15.83   14.86
  -4   6  14   47.24   10.68
  -4   6  14   28.95   14.14
  -4   6  13    3.92    7.80
  -4   6  13    4.62    4.80
  -4   6  13   25.84   14.67
  -4  -6  13   -2.99   13.81
  -4   6  13   -1.90    5.55
  -4   6  12   35.65    8.69
  -4  -6  12   19.69   14.40
  -4   6  12   14.04    7.16
   4   6 -12   40.87   10.47
  -4   6  12   20.95    6.34
  -4   6  11   14.38    6.89
  -4  -6  11   21.01   14.34
  -4   6  11   21.91    6.56
  -4   6  11   19.39    7.14
   4   6 -11    1.76    8.37
  -4   6  10    5.70    4.30
  -4   6  10   -1.49    6.04
   4   6 -10   -6.62    7.64
  -4   6  10    6.90    6.44
   4   6  -9  276.70   21.63
  -4   6   9  332.35   22.38
  -4   6   9  346.31   21.17
  -4   6   8    4.10    4.39
  -4   6   8    3.18    5.82
  -4   6   8    6.61    6.81
   4   6  -8    1.43    6.78
  -4   6   7  309.96   19.79
   4   6  -7  301.65   20.64
  -4   6   7  333.83   21.75
  -4   6   6   70.87    9.54
  -4   6   6   78.69    9.08
   4   6  -6   63.45    9.70
   4  -6  -5  110.16    8.20
  -4   6   5  114.28   10.93
   4   6  -5   84.94    9.96
   4   6  -5  102.31    8.20
  -4   6   5  117.06   10.82
  -4   6   4  119.15   10.51
   4   6  -4  121.71    9.38
   4   6  -4  106.05    8.96
  -4   6   4  110.00   10.71
   4   6  -3   45.27    5.98
  -4   6   3   64.38    7.91
  -4   6   3   50.65    6.79
   4   6  -3   54.58    7.14
  -4   6   2  841.05   36.42
   4   6  -2  809.34   37.22
  -4   6   2  838.10   39.12
   4   6  -2  876.37   36.65
  -4   6   1  162.26   10.83
   4   6  -1  179.87   13.29
   4   6  -1  156.67   11.29
   4   6  -1  174.20   11.08
   4   6   0    1.79    2.79
  -4   6   0    1.46    2.42
   4   6   0    3.50    4.98
   4  -6   0    5.50    3.41
  -4   6   0    3.75    4.21
   4   6   0    3.89    3.10
   4   6   1   72.08    7.42
  -4   6  -1   56.37    5.87
  -4   6  -1   56.08    8.07
   4   6   1   49.14    6.34
   4  -6   1   66.63    6.87
   4   6   1   75.91    9.79
   4   6   2  397.86   22.68
  -4   6  -2  317.09   20.20
   4   6   2  334.72   18.71
   4   6   2  343.89   19.26
   4  -6   2  338.86   17.86
  -4  -6  -3   54.95    7.21
   4   6   3   69.93    7.78
  -4   6  -3   67.86   10.93
   4   6   3   87.45    8.59
   4  -6   3   74.99    7.29
   4   6   3   81.68   11.01
  -4  -6  -4   -1.01    3.68
   4   6   4   -1.05    3.28
  -4   6  -4   -4.32    9.19
   4  -6   4   -0.87    4.21
   4   6   4    1.09    4.08
   4   6   4    4.66    6.63
  -4  -6  -5   70.80    8.39
  -4   6  -5   99.07   14.81
   4   6   5   87.12    9.89
   4   6   5   90.62    9.04
   4   6   5   91.71   12.42
   4  -6   5   98.96    9.02
  -4  -6  -6   14.37    4.82
  -4   6  -6   14.47   10.75
   4  -6   6    5.48    5.00
   4   6   6   17.11    4.97
   4   6   6   10.31    7.94
  -4  -6  -7  619.52   31.32
   4   6   7  679.35   36.43
   4  -6   7  646.20   32.25
  -4   6  -7  617.30   37.69
   4   6   7  646.88   31.76
  -4  -6  -8   20.64    5.94
   4  -6   8   11.05    6.48
   4   6   8   13.75    5.10
   4   6   9  282.64   22.88
  -4  -6  -9  279.88   18.67
   4  -6   9  318.37   21.27
   4   6   9  282.15   18.85
   4  -6  10    1.68    7.76
   4   6  10    9.60    5.35
   4   6  10   24.08    9.64
   4  -6  11   40.35   10.13
   4   6  11   41.61    7.74
   4   6  11   57.77   12.55
   4  -6  12  159.04   16.91
   4   6  12  138.22   13.27
   4   6  12  129.76   16.23
   4  -6  13   49.16   10.98
   4   6  13   58.59    9.13
   4   6  13   67.46   13.82
   4  -6  14   22.81    9.61
   4   6  14   20.80    6.53
   4   6  14   33.31   10.84
   4  -6  15   16.98    9.48
   4   6  15   19.90    6.62
   4   6  15   20.38   10.01
   4  -6  16   -2.56   10.17
   4   6  16    1.71    5.48
   4   6  16    2.30    8.42
   4  -6  17   -5.36   10.02
   4   6  17    5.26    5.46
   4   6  17    2.34    8.54
   4  -6  18    8.39   10.23
   4   6  18   10.79    6.58
   4   6  18    9.44    8.64
   4  -6  19  -26.15   12.41
   4   6  19    2.38    8.90
   4  -6  20    8.98   10.70
   4   6  20   11.94    9.50
  -4   7  20    6.48   15.97
  -4   7  20    9.83    8.40
  -4   7  19   -3.23   15.53
  -4   7  19    1.94    6.93
  -4   7  18    3.21   14.15
  -4   7  18   -1.91    6.13
  -4   7  17   44.51   15.51
  -4   7  17   27.95    8.03
  -4   7  16   -6.28   15.10
  -4   7  16   14.57    6.66
  -4   7  15   -3.10   15.27
  -4   7  15   -3.54    6.61
  -4   7  15   13.55    7.87
  -4   7  14   21.36   13.75
  -4   7  14   43.10    8.74
  -4   7  13  183.44   23.75
  -4   7  13  168.70   17.44
  -4   7  13  146.55   14.81
  -4   7  12   47.40   14.96
  -4   7  12   72.37   10.58
  -4   7  12   66.91   11.51
  -4   7  11  109.52   12.35
  -4   7  11  115.34   13.93
  -4   7  10   50.74    8.50
  -4   7  10   58.49   10.15
  -4   7   9   39.93    8.19
  -4   7   9   41.85    9.30
  -4   7   8  309.08   21.30
  -4   7   8  361.26   23.87
  -4   7   7   10.28    5.13
  -4   7   6  228.86   17.01
   4   7  -5    1.98    3.19
  -4   7   5   -2.83    4.55
  -4   7   4   30.83    6.15
  -4   7   4   18.30    5.43
   4   7  -4   20.92    4.85
   4   7  -3    8.06    5.61
   4   7  -3    1.00    3.59
  -4   7   3    4.19    4.49
  -4   7   3    6.15    3.83
  -4   7   2  205.38   13.65
   4   7  -2  203.66   14.99
   4   7  -2  231.26   14.85
  -4   7   2  219.10   16.33
  -4   7   1  237.01   14.73
   4   7  -1  256.03   15.17
   4   7  -1  256.07   16.06
   4   7  -1  235.95   17.08
  -4   7   1  281.02   18.52
  -4   7   0  424.30   21.53
   4   7   0  436.83   23.35
   4   7   0  433.68   25.35
   4   7   0  476.91   23.13
   4   7   1   30.29    8.45
  -4   7  -1   43.26    5.46
   4   7   1   34.87    6.12
   4   7   1   42.93    6.62
  -4   7  -2  505.80   23.75
   4   7   2  488.17   28.91
   4   7   2  522.45   26.16
   4   7   2  495.51   26.20
   4   7   3  183.20   16.56
   4   7   3  162.44   13.38
   4   7   3  169.07   13.28
  -4  -7  -4  145.83   12.22
   4   7   4  126.44   12.06
   4   7   4  167.62   12.81
   4   7   4  138.67   15.34
  -4  -7  -5  338.91   19.78
   4   7   5  278.26   22.23
   4   7   5  302.89   19.91
   4   7   5  315.78   19.53
  -4  -7  -6  180.50   14.14
   4   7   6  180.61   17.84
   4   7   6  170.30   14.54
   4   7   6  153.26   13.35
   4   7   7  249.59   21.44
   4   7   7  249.15   17.55
   4   7   8   47.18    7.86
   4   7   8   28.79   11.31
   4   7   9  100.62   11.17
   4   7   9   95.29   14.33
   4   7  10   17.96    6.20
   4   7  10   15.31    8.88
   4   7  11  145.81   14.06
   4   7  11  150.19   17.27
   4   7  12    6.44    5.48
   4   7  12   18.43   10.00
   4   7  13    8.30    5.64
   4   7  13   -9.40    9.16
   4   7  14   46.19    8.87
   4   7  14   35.93   11.60
   4   7  15   45.75    8.91
   4   7  15   36.69   11.69
   4   7  16   23.54    7.51
   4   7  16   22.33   10.80
   4   7  17   -1.85    5.59
   4   7  17    7.54    9.80
   4   7  18    5.67    5.90
   4   7  18   25.37   11.19
   4   7  19   17.82   11.24
  -4   8  18    6.05    6.29
  -4   8  18   -3.36   14.59
  -4   8  17   31.58    8.34
  -4   8  17   19.99   15.17
  -4   8  16   -4.92    8.13
  -4   8  16   -1.94    6.41
  -4   8  16  -13.14   14.48
  -4   8  15    7.19    7.70
  -4   8  15   -1.90    5.93
  -4   8  15   -6.47   14.27
  -4   8  14   88.51   13.64
  -4   8  14   50.05    9.83
  -4   8  14   63.59   17.66
  -4   8  13   27.06    9.68
  -4   8  13   23.71    7.31
  -4   8  12   57.31   10.02
  -4   8  12   65.46   11.74
  -4   8  12   76.56   18.31
  -4   8  11    7.06    5.50
  -4   8  11   -2.11    6.59
  -4   8  10   10.52    5.97
  -4   8  10    6.15    6.97
  -4   8  10   11.80   13.21
  -4   8   9   91.68   11.46
  -4   8   9   75.54   11.96
  -4   8   8   -1.69    5.89
  -4   8   8    1.93    6.57
  -4   8   7    1.65    4.63
  -4   8   6   79.27   10.83
  -4   8   5  813.71   40.81
   4   8  -4  123.27   10.74
  -4   8   4   82.33   11.01
   4   8  -3  470.26   24.61
  -4   8   3  415.40   26.20
   4   8  -2  266.69   18.00
  -4   8   2  353.36   21.92
  -4   8   1   28.33    7.53
   4   8  -1   28.86    6.30
   4   8  -1   33.23    8.63
   4   8   0  223.77   15.46
  -4   8   0  181.39   15.72
   4   8   0  193.66   16.95
   4   8   1   -2.55    4.76
   4   8   1   12.87    8.60
   4   8   2   61.17    8.52
   4   8   2   66.57   11.58
   4   8   3  179.29   17.77
   4   8   3  177.50   14.55
   4   8   4   21.90    5.98
   4   8   4   25.94    6.77
   4   8   4   11.41    8.67
   4   8   5  183.92   18.07
   4   8   5  179.54   15.45
   4   8   5  180.36   14.73
   4   8   6   69.25    9.48
   4   8   6   74.93   10.29
   4   8   6   74.94   13.02
   4   8   7    2.96    4.90
   4   8   7    6.48    8.25
   4   8   8   18.25    6.17
   4   8   8    2.22    7.76
   4   8   9    1.57    5.06
   4   8   9    9.17    8.76
   4   8  10   50.49    9.32
   4   8  10   51.98   12.75
   4   8  11   72.03   10.54
   4   8  11   84.49   14.57
   4   8  12    1.73    5.22
   4   8  12    2.47   10.38
   4   8  13   60.59   10.76
   4   8  13   50.35   13.02
   4   8  14   27.35    7.73
   4   8  14   38.39   11.85
   4   8  15   27.94    8.51
   4   8  15   23.38   10.94
   4   8  16   -3.81    6.97
   4   8  16    5.28    9.65
   4   8  17   66.32   11.28
   4   8  17  101.34   17.35
  -4   9  16    2.05    6.19
  -4   9  16   10.34    9.24
  -4   9  16    6.78   14.71
  -4   9  15   96.13   15.32
  -4   9  15   80.90   12.18
  -4   9  15   86.82   19.01
  -4   9  14   69.13   12.85
  -4   9  14   73.41   11.72
  -4   9  14   62.32   17.32
  -4   9  13   19.62    7.69
  -4   9  13   38.43   10.62
  -4   9  13   16.08   14.20
  -4   9  12  100.16   13.21
  -4   9  12  116.76   15.27
  -4   9  12  119.64   20.88
  -4   9  11   13.38    6.69
  -4   9  11   31.82   10.65
  -4   9  11   18.46   14.40
  -4   9  10   95.47   12.73
  -4   9  10   99.57   14.21
  -4   9  10   96.25   19.20
  -4   9   9    5.78    5.42
  -4   9   9    4.31    7.32
  -4   9   9   20.57   14.12
  -4   9   8  137.34   14.75
  -4   9   8  134.58   15.71
  -4   9   8  114.80   19.27
  -4   9   7   87.07   12.19
  -4   9   7   61.72   11.85
  -4   9   6   73.53   11.13
  -4   9   5   31.90    7.89
  -4   9   4   70.56   10.40
  -4   9   3  207.09   17.52
  -4   9   2   -8.75    5.95
   4   9  -1   73.47    9.74
  -4   9   1   66.33   10.73
  -4   9   0   31.39    7.88
   4   9   0   29.24    6.51
  -4   9  -1  315.14   22.47
   4   9   1  329.17   23.35
   4   9   1  312.90   20.75
   4   9   2    2.99    4.80
   4   9   2    9.35    7.98
   4   9   3    9.10    5.56
   4   9   3   23.60    9.34
   4   9   4    4.58    4.76
   4   9   4   12.42    9.55
   4   9   5   21.80    6.36
   4   9   5   28.04   10.66
   4   9   6   19.02    6.21
   4   9   6   11.20    9.25
   4   9   7    1.63    4.40
   4   9   7    9.27    9.21
   4   9   8   49.84    9.10
   4   9   8   33.47   11.44
   4   9   9   71.77   10.58
   4   9   9   90.58   15.38
   4   9  10   14.05    6.73
   4   9  10   22.61   10.92
   4   9  11   34.12    8.04
   4   9  11   59.19   13.97
   4   9  12   51.64    9.83
   4   9  12   60.20   13.04
   4   9  13    5.68    6.26
   4   9  13   16.02   11.01
   4   9  14   -3.86    6.39
   4   9  14   10.82   11.74
   4   9  15   17.71    7.39
   4   9  15   21.90   12.28
  -4  10  13   58.45   10.66
  -4  10  13   68.62   13.33
  -4  10  13   72.08   18.72
  -4  10  12   18.56    7.90
  -4  10  12   27.29   10.06
  -4  10  12   -3.21   14.15
  -4  10  11    4.11    6.41
  -4  10  11    2.42    7.06
  -4  10  11  -12.55   13.83
  -4  10  10   53.59   10.47
  -4  10  10   21.31    9.66
  -4  10  10   21.44   14.56
  -4  10   9   66.24   11.47
  -4  10   9   78.65   13.00
  -4  10   9   80.62   17.45
  -4  10   8   60.96   10.49
  -4  10   8   67.89   12.90
  -4  10   8   58.21   16.19
  -4  10   7   23.82    8.09
  -4  10   7   28.82    8.86
  -4  10   7   28.35   13.83
  -4  10   6   78.49   12.10
  -4  10   6   93.74   17.83
  -4  10   5    1.94    5.85
  -4  10   5   -5.37   11.26
  -4  10   4   46.15    9.29
  -4  10   4    2.61   11.17
  -4  10   3  107.75   13.31
  -4  10   3   96.17   17.01
  -4  10   2  216.04   18.91
  -4  10   2  198.77   22.02
  -4  10   1   -1.90    6.28
  -4  10   0    5.70    5.74
  -4  10  -1  107.87   13.07
  -4  10  -2   -1.89    5.70
   4  10   2    6.67    5.67
   4  10   3   48.48    9.29
  -4  10  -3   45.11    8.97
   4  10   3   71.56   13.45
   4  10   4   23.46    7.21
   4  10   4   30.75   11.26
   4  10   5   20.45    6.96
   4  10   5   39.01   11.76
   4  10   6   58.78    9.91
   4  10   6   52.30   12.85
   4  10   7  132.63   14.29
   4  10   7  152.10   18.88
   4  10   8   54.14    9.52
   4  10   8   55.56   13.77
   4  10   9   44.01    9.23
   4  10   9   20.63   11.25
   4  10  10   58.15   10.15
   4  10  10   68.67   14.86
   4  10  11    3.83    5.79
   4  10  11    5.39   10.72
   4  10  12   35.28    8.73
   4  10  12   38.29   13.54
   4  10  13   13.99    7.16
  -4  11  11  114.95   16.66
  -4  11  10   35.00    9.22
  -4  11  10   15.03    9.20
  -4  11  10   21.69   15.48
  -4  11   9   30.80    8.78
  -4  11   9   19.64    9.97
  -4  11   9    9.06   13.33
  -4  11   8   26.43    9.12
  -4  11   8   21.63    9.58
  -4  11   8   11.78   12.81
  -4  11   7   43.18    9.75
  -4  11   7   40.08   10.63
  -4  11   7   20.08   12.51
  -4  11   6    2.12    5.96
  -4  11   6   -4.63    7.66
  -4  11   5   79.88   12.38
  -4  11   5   89.49   17.16
  -4  11   4    2.08    6.48
  -4  11   4    2.64   11.44
  -4  11   3   -2.07    6.05
  -4  11   2   39.10    9.59
  -4  11   1  176.46   17.58
  -4  11   0   -2.05    5.52
  -4  11  -1   18.24    7.44
  -4  11  -2   10.11    6.31
  -4  11  -3    2.01    5.65
  -4  11  -4   87.92   12.55
   4  11   5   36.63    8.65
   4  11   5   31.10   10.62
   4  11   6    7.45    5.63
   4  11   6    2.47   10.02
   4  11   7   -1.90    5.92
   4  11   7    2.55   10.69
   4  11   8    9.64    7.21
   4  11   8   -2.61   12.22
   4  11   9   74.17   11.52
   4  11   9   53.54   14.34
   4  11  10    1.99    6.57
   4  11  10    2.73   11.07
  -4  12   7   -2.47    7.94
  -4  12   7   -8.65   14.04
  -4  12   6   50.96   11.79
  -4  12   4   26.61    8.86
  -4  12   3   57.30   11.82
  -4  12   2    6.58    6.62
  -4  12   1   69.90   11.80
  -4  12   0   45.58    9.99
  -4  12  -1   62.20   11.05
  -4  12  -2    8.51    7.24
  -4  12  -3    2.12    6.60
  -4  12  -4    8.40    6.35
  -4  12  -5   29.28    8.37
  -4  12  -6   80.90   12.74
  -5   0  24   -4.67   18.89
  -5   0  23    4.57   18.14
   5   0 -23   -3.89   11.75
  -5   0  23   18.61   19.19
  -5   0  22    4.46   15.54
   5   0 -22   22.63   13.48
  -5   0  21  -17.27   20.47
   5   0 -21   14.54   12.35
   5   0 -20   55.80   15.94
  -5   0  20   40.68   13.47
  -5   0  20   58.10   21.52
   5   0 -19   13.34   12.19
  -5   0  19   -8.96    9.88
   5   0 -18 1011.61   58.05
  -5   0  18 1002.26   56.24
   5   0 -17   15.01   10.47
  -5   0  17    2.69    9.13
   5   0 -16   11.31    9.61
  -5   0  16   -2.54    9.50
   5   0 -15   -2.65    8.26
  -5   0  15   -9.54   10.18
   5   0 -15    1.20    5.05
   5   0 -14  251.64   22.72
   5   0 -14  259.75   15.04
   5   0 -14  255.16   16.64
   5   0 -14  246.62   18.81
  -5   0  14  218.25   21.70
   5   0 -14  248.19   20.17
   5   0 -13    2.28    6.17
   5   0 -13    1.73    6.31
   5   0 -13   -2.10    4.56
   5   0 -13   -0.78    3.05
  -5   0  13   -2.07    7.90
   5   0 -13    2.92    5.69
   5   0 -12  472.79   31.41
   5   0 -12  526.22   25.74
   5   0 -12  524.36   23.69
  -5   0  12  465.81   30.59
   5   0 -12  511.58   29.37
   5   0 -11    7.40    5.65
   5   0 -11    5.76    6.69
   5   0 -11   -2.68    3.94
   5   0 -11    1.31    2.44
  -5   0  11   -1.75    6.10
   5   0 -10   67.90   10.37
   5   0 -10   43.33    7.56
  -5   0  10   40.80    4.62
  -5   0  10   47.53    8.79
   5   0 -10   49.87    5.06
   5   0  -9    0.52    1.96
  -5   0   9    1.02    1.91
   5   0  -9   -1.41    4.66
  -5   0   9    1.42    4.69
   5   0  -9   -1.22    3.57
   5   0  -9   -1.57    4.89
   5   0  -8 1036.89   38.58
  -5   0   8  990.22   40.29
  -5   0   8  942.33   38.07
   5   0  -8  969.90   45.34
   5   0  -8  960.78   44.31
  -5   0   8 1035.64   44.95
   5   0  -8  949.57   43.16
   5   0  -7   -1.16    1.60
  -5   0   7    0.61    2.22
  -5   0   7    0.38    1.43
   5   0  -7    0.97    3.19
   5   0  -7   -2.47    4.30
   5   0  -7    1.13    3.95
  -5   0   7   -1.09    3.40
  -5   0   7    3.70    4.61
   5   0  -6   42.38    3.42
  -5   0   6   41.81    3.52
  -5   0   6   36.76    4.17
  -5   0   6   46.53    7.51
   5   0  -6   39.71    5.96
   5   0  -6   43.57    5.64
  -5   0   6   35.74    5.66
  -5   0   6   36.21    5.92
   5   0  -6   36.70    5.75
   5   0  -5    2.54    2.38
   5   0  -5   -1.06    1.14
  -5   0   5   -0.90    2.43
   5   0  -5   -1.43    2.50
  -5   0   5    3.97    4.17
  -5   0   5    0.26    1.05
  -5   0   5   -1.37    2.14
   5   0  -5   -1.83    3.02
  -5   0   5   -2.41    2.93
  -5   0   4   21.47    4.22
   5   0  -4   32.24    3.99
  -5   0   4   33.93    4.61
   5   0  -4   33.00    4.38
  -5   0   4   36.98    5.34
  -5   0   4   32.12    2.62
  -5   0   3   -0.39    0.84
  -5   0   3   -1.89    2.20
   5   0  -3    0.50    1.40
  -5   0   3   -0.73    1.97
   5   0  -3    0.58    1.70
  -5   0   3   -1.39    2.59
  -5   0   2  185.38   10.13
   5   0  -2  178.20    9.34
   5   0  -2  168.14    9.72
   5   0  -2  178.30    9.85
  -5   0   2  171.17   10.39
  -5   0   1    3.39    3.08
  -5   0   1    1.38    1.34
  -5   0   1   -0.55    2.06
  -5   0   1   -0.50    1.76
   5   0  -1   -0.49    1.28
  -5   0   0  809.55   31.71
  -5   0   0  777.90   32.58
   5   0   0  773.86   33.72
  -5   0  -1   -1.12    2.58
  -5   0  -1    0.53    2.87
   5   0   1   -1.35    2.53
   5   0   2 1183.89   47.48
  -5   0  -2 1225.87   47.46
   5   0   2 1220.42   47.99
  -5   0  -2 1235.79   47.60
  -5   0  -3   -2.10    2.42
   5   0   3   -0.65    2.15
  -5   0  -3   -1.36    3.22
   5   0   3   -0.62    1.95
  -5   0  -3    1.31    3.18
  -5   0  -4 1792.62   67.07
   5   0   4 1754.39   68.08
  -5   0  -4 1785.87   69.07
   5   0   4 1786.56   67.99
  -5   0  -4 1736.85   68.63
  -5   0  -5   -1.93    3.22
  -5   0  -5    2.96    4.42
   5   0   5    3.31    2.89
   5   0   5   -1.60    2.79
  -5   0  -5    2.85    4.80
   5   0   6  426.53   19.35
  -5   0  -6  382.73   19.61
   5   0   6  382.61   20.97
  -5   0  -6  432.14   23.32
   5   0   6  404.09   21.08
  -5   0  -6  389.90   22.48
   5   0   7    3.43    2.83
  -5   0  -7   -3.99    6.63
  -5   0  -7    3.20    3.95
  -5   0  -7   -1.40    6.71
   5   0   7    1.09    3.90
   5   0   7   -4.23    3.95
   5   0   8   21.97    4.18
  -5   0  -8   24.73    9.28
   5   0   8   28.62    6.35
  -5   0  -8   13.31    5.27
   5   0   8   21.05    5.92
  -5   0  -8   22.63    9.29
  -5   0  -8   20.90    4.24
   5   0   9    1.56    3.43
   5   0   9   -2.67    5.20
  -5   0  -9    3.56    8.32
  -5   0  -9    3.96    5.00
   5   0   9    4.16    4.83
  -5   0  -9   -1.83    9.59
  -5   0  -9   -0.85    2.72
   5   0  10  561.53   31.71
  -5   0 -10  611.32   28.61
  -5   0 -10  623.66   30.21
   5   0  10  628.81   28.03
  -5   0 -10  625.67   37.06
  -5   0 -10  661.77   37.54
   5   0  10  598.54   32.45
  -5   0 -10  550.34   31.76
  -5   0 -11    0.99    3.17
   5   0  11   -0.87    3.58
   5   0  11    4.87    6.33
  -5   0 -11   -4.76    6.81
   5   0  11    5.05    6.56
  -5   0 -11   -4.47   11.94
  -5   0 -11    3.16    6.86
  -5   0 -12   83.44    8.91
   5   0  12   78.36    8.42
   5   0  12  100.42   12.78
  -5   0 -12   81.03   11.46
  -5   0 -12   62.79   16.13
   5   0  12  113.37   13.77
  -5   0 -12   84.44   13.04
  -5   0 -13   -3.36    4.28
   5   0  13   -3.81    4.26
  -5   0 -13    5.50    9.03
   5   0  13    3.94    7.98
   5   0  13   -1.91    7.57
  -5   0 -13    1.80    7.67
   5   0  14   84.38   14.03
   5   0  14   81.51   13.67
  -5   0 -14   74.04   13.28
   5   0  15    4.49    8.91
   5   0  15   -8.67   10.95
  -5   0 -15    1.99    9.19
   5   0  16    6.87    8.39
   5   0  16   30.81   10.63
   5   0  17    2.41    8.82
   5   0  17    4.98    9.31
   5   0  18  139.01   17.82
   5   0  18  156.53   19.12
   5   0  19    5.27    9.64
   5   0  19    2.71    9.92
   5   0  20  338.17   28.59
   5   0  20  284.30   27.43
   5   0  21   -2.82   10.55
   5   0  22   29.84   12.98
   5   0  22   20.28   12.19
   5   0  23   -3.05   11.65
  -5   1  24   27.53   20.57
  -5   1  23   -8.98   18.19
  -5  -1  23    4.61   18.32
   5   1 -23   15.60   12.89
   5  -1 -23    3.88   10.46
  -5   1  23    4.64   20.15
  -5  -1  23   -4.60   18.26
  -5  -1  22   13.51   16.49
  -5   1  22   30.69   19.35
   5   1 -22   11.33   13.19
   5  -1 -22   48.80   16.05
  -5   1  21   -4.25   18.12
  -5  -1  21   -8.72   17.33
  -5   1  21   12.91   12.07
   5  -1 -21    3.62   11.63
   5   1 -21    7.28   12.99
  -5  -1  20   16.81   17.05
   5   1 -20   31.42   14.43
   5  -1 -20   55.59   15.82
  -5   1  20   49.00   20.65
  -5   1  20   12.36   12.33
   5  -1 -19   13.29   11.30
   5   1 -19   16.68   11.64
  -5   1  19   20.63   12.38
   5  -1 -18   28.45   13.04
   5   1 -18    6.34    9.90
  -5  -1  18   20.20   12.93
  -5   1  18    5.62   10.27
   5   1 -17   51.02   13.68
  -5  -1  17   87.41   16.13
  -5   1  17   61.09   14.12
   5  -1 -16  143.79   18.69
   5   1 -16  115.82   17.79
  -5  -1  16  108.29   17.40
  -5   1  16   97.53   15.98
   5  -1 -15  179.63   20.29
   5   1 -15  121.65   17.75
   5  -1 -15  160.96   12.15
  -5  -1  15  172.18   19.41
  -5   1  15  157.28   18.66
   5  -1 -14   27.06   10.51
   5   1 -14   39.40   12.00
   5  -1 -14   12.73    6.67
  -5   1  14   13.24    4.33
   5   1 -14   20.94    5.96
   5  -1 -14    4.78    3.91
  -5  -1  14   29.52   11.21
   5   1 -14   17.82    7.27
   5   1 -14   22.13    8.40
  -5   1  14   21.87    9.66
   5  -1 -13  315.66   17.37
   5   1 -13  276.53   17.33
   5   1 -13  300.43   16.03
  -5   1  13  327.66   17.61
  -5   1  13  312.66   23.83
  -5  -1  13  253.91   22.81
   5   1 -13  276.95   21.38
   5   1 -13  318.23   21.27
   5  -1 -13  270.78   20.87
   5  -1 -13  309.84   24.91
   5   1 -13  325.75   25.47
   5   1 -12  247.68   15.01
   5  -1 -12  231.85   14.08
   5   1 -12  214.38   12.90
  -5   1  12  234.71   14.24
   5   1 -12  243.37   18.88
   5  -1 -12  256.51   18.66
   5   1 -12  223.64   17.29
  -5   1  12  260.75   20.64
  -5  -1  12  281.83   21.74
   5   1 -12  182.18   18.79
   5  -1 -12  293.27   22.41
   5   1 -11  562.90   25.95
   5   1 -11  549.29   24.14
  -5   1  11  548.29   25.50
   5  -1 -11  591.16   25.83
   5  -1 -11  596.16   30.87
   5   1 -11  548.30   30.31
  -5  -1  11  557.41   32.39
   5   1 -11  530.69   29.19
  -5   1  11  533.67   31.48
   5   1 -11  562.34   32.93
   5  -1 -11  493.39   31.62
   5   1 -10  362.93   18.70
  -5   1  10  392.85   20.85
   5   1 -10  366.41   17.27
   5  -1 -10  411.90   18.99
  -5   1  10  388.43   18.73
  -5  -1  10  361.26   24.32
   5   1 -10  389.42   22.97
   5   1 -10  351.47   21.68
   5  -1 -10  366.95   22.41
  -5   1  10  396.31   24.09
   5   1 -10  379.66   24.66
   5  -1 -10  379.47   25.02
  -5   1   9   93.57    7.09
  -5   1   9   75.89    7.68
   5   1  -9   78.52    5.76
   5   1  -9   85.80    7.05
   5  -1  -9   77.93    6.62
   5   1  -9   78.08   10.30
   5  -1  -9   87.27   10.63
   5   1  -9   82.05    9.25
   5   1  -9   87.08   10.38
   5  -1  -9   86.98   10.54
   5  -1  -9   95.34    9.79
   5   1  -9   71.79    8.60
  -5  -1   9   74.11   10.21
  -5   1   9   81.65    9.80
   5  -1  -8 3433.75  123.03
  -5   1   8 3358.09  125.21
   5   1  -8 3242.63  122.71
  -5   1   8 3435.64  123.20
   5   1  -8 3415.43  121.34
   5   1  -8 3347.79  130.00
   5  -1  -8 3286.47  129.57
   5   1  -8 3361.52  128.92
   5  -1  -8 3416.17  129.01
  -5   1   8 3308.39  128.66
   5   1  -8 3481.76  127.88
   5   1  -8 3305.84  126.75
   5  -1  -8 3437.76  127.54
  -5  -1   8 3523.25  129.91
  -5   1   8 3236.83  129.83
   5  -1  -7  155.48    8.76
  -5   1   7  132.36    9.76
   5   1  -7  144.41    7.31
  -5   1   7  137.81    8.48
   5   1  -7  169.89   13.01
   5  -1  -7  126.98   11.78
   5  -1  -7  125.52   11.23
   5   1  -7  128.86   11.28
   5   1  -7  154.55   11.13
   5  -1  -7  140.19   10.92
  -5  -1   7  111.50   11.05
  -5   1   7  159.89   12.08
   5   1  -7  153.69   11.33
  -5   1   7  154.30   12.74
   5   1  -6    1.10    1.06
  -5   1   6    2.32    1.62
   5  -1  -6    5.43    2.00
  -5   1   6    4.08    2.37
   5  -1  -6    0.84    2.86
   5   1  -6    3.31    2.81
   5  -1  -6   -1.06    3.60
  -5   1   6    6.52    3.39
   5   1  -6    1.07    2.90
  -5  -1   6   10.01    4.41
  -5  -1   6    9.45    4.18
   5   1  -6    2.97    3.09
   5  -1  -6    0.98    3.50
   5  -1  -5   54.90    6.19
   5   1  -5   68.46    6.84
   5  -1  -5   55.30    4.51
   5   1  -5   57.07    3.14
  -5   1   5   61.48    4.71
  -5  -1   5   58.00    4.11
  -5   1   5   65.86    6.99
   5   1  -5   50.94    5.71
  -5   1   5   44.19    6.70
  -5  -1   5   61.01    7.41
   5  -1  -5   45.77    5.58
   5  -1  -5   42.25    5.98
   5   1  -5   59.39    6.70
  -5  -1   5   54.89    6.45
  -5  -1   5   69.18    7.09
  -5  -1   4  110.86    5.88
  -5   1   4  116.91    6.87
  -5   1   4  125.95    9.10
  -5  -1   4  120.37    8.78
  -5  -1   4  120.00    8.72
   5   1  -4  110.19    8.34
   5  -1  -4  121.84    8.58
  -5   1   4  125.03    9.71
  -5  -1   4  126.21    9.80
  -5  -1   4  105.93    9.05
   5  -1  -4  114.67    8.00
   5   1  -4  132.54    8.29
  -5   1   4  118.16    9.24
  -5   1   3  898.51   33.66
  -5  -1   3  892.86   35.54
  -5  -1   3  834.91   34.95
   5  -1  -3  898.53   35.27
   5   1  -3  863.04   35.19
  -5  -1   3  880.89   36.50
  -5   1   3  849.10   36.30
  -5  -1   3  826.76   35.92
   5  -1  -3  887.88   34.87
   5   1  -3  860.12   34.20
  -5   1   3  865.16   35.95
  -5   1   3  830.29   35.94
  -5   1   2  397.54   19.87
  -5  -1   2  412.44   18.22
  -5   1   2  428.50   18.93
   5   1  -2  396.55   17.27
   5  -1  -2  403.50   18.02
  -5   1   2  401.62   19.07
  -5  -1   2  429.48   19.32
   5  -1  -2  412.05   18.45
   5   1  -2  393.78   18.24
  -5  -1   1    0.88    0.83
  -5  -1   1    0.82    1.11
  -5   1   1    3.09    1.80
  -5  -1   1   -1.39    2.96
  -5   1   1   -2.64    3.04
   5  -1  -1    0.99    1.29
   5   1  -1    0.98    1.33
  -5   1   1    0.50    1.92
  -5  -1   1   -0.51    2.06
  -5   1   1    3.84    2.05
  -5  -1   1    0.56    1.56
   5  -1   0  724.68   30.97
   5   1   0  668.64   30.41
  -5  -1   0  655.59   29.45
  -5   1   0  732.04   29.77
  -5  -1   0  708.03   28.68
  -5  -1   0  725.79   26.58
  -5   1   0  696.20   28.52
  -5  -1   0  685.17   28.49
  -5   1  -1 1441.19   55.45
   5  -1   1 1457.20   56.39
   5   1   1 1453.31   56.45
  -5  -1  -1 1395.30   54.97
  -5  -1  -1 1478.66   55.02
  -5  -1  -1 1402.85   52.91
  -5   1  -1 1445.62   55.03
  -5  -1  -1 1494.40   55.18
   5  -1   2 1671.92   64.62
  -5  -1  -2 1661.28   63.82
   5   1   2 1726.87   64.56
  -5   1  -2 1797.34   64.82
  -5  -1  -2 1649.97   64.00
   5   1   2 1687.42   63.81
  -5  -1  -2 1687.55   62.27
  -5  -1  -2 1719.12   64.11
   5   1   2 1679.68   64.15
  -5   1  -2 1680.93   63.99
   5  -1   2 1635.78   64.09
  -5  -1  -3  106.85    6.68
   5   1   3   86.39    6.94
  -5  -1  -3  115.61    8.26
   5   1   3  105.34    7.63
   5  -1   3   90.41    7.41
  -5   1  -3  107.44    8.44
  -5  -1  -3  104.01    7.74
   5   1   3  103.69    7.49
   5  -1   3   94.58    7.25
  -5  -1  -3   84.08    7.28
  -5   1  -3  103.26    7.82
  -5  -1  -4   59.04    5.16
   5   1   4   60.56    5.79
  -5   1  -4   54.98    6.51
  -5  -1  -4   55.67    6.58
  -5  -1  -4   58.81    6.36
   5   1   4   62.20    5.88
   5  -1   4   74.73    6.67
  -5  -1  -4   64.98    6.71
  -5   1  -4   54.52    7.05
   5   1   4   46.57    5.58
   5  -1   4   53.57    5.79
  -5  -1  -5   14.19    3.08
  -5   1  -5    6.01    2.65
   5   1   5    8.48    2.98
  -5  -1  -5    6.76    4.59
  -5   1  -5    7.63    4.83
  -5  -1  -5    9.60    3.96
  -5  -1  -5   14.98    5.01
  -5   1  -5    8.44    4.67
   5   1   5   11.45    3.68
   5  -1   5   11.51    3.98
   5  -1   5    9.55    3.24
   5   1   5   11.96    3.58
  -5  -1  -6  463.94   21.63
   5   1   6  468.22   23.15
   5  -1   6  470.29   24.18
  -5  -1  -6  478.18   25.32
  -5   1  -6  425.59   25.29
   5   1   6  438.01   23.11
  -5   1  -6  426.86   24.46
  -5  -1  -6  491.14   25.36
   5  -1   6  480.67   23.59
   5   1   6  475.59   22.39
  -5   1  -6  512.89   21.71
  -5  -1  -6  465.79   23.26
  -5  -1  -7  386.73   19.22
  -5  -1  -7  422.03   21.69
   5   1   7  392.20   19.82
  -5   1  -7  371.92   18.76
   5  -1   7  376.40   21.76
   5   1   7  385.43   20.95
  -5  -1  -7  373.13   23.20
  -5   1  -7  369.93   23.96
   5  -1   7  376.66   20.91
  -5  -1  -7  387.08   23.24
  -5   1  -7  395.46   23.56
   5   1   7  388.81   21.30
  -5  -1  -8   71.21    7.12
   5   1   8   79.92    7.89
  -5   1  -8   71.52    7.47
  -5   1  -8   48.07   10.71
   5   1   8   69.04    8.83
  -5  -1  -8   78.14   11.96
   5  -1   8   82.91    9.35
  -5  -1  -8   68.53    9.09
  -5   1  -8   67.32   11.64
   5  -1   8   79.26    9.73
  -5  -1  -8   74.92   11.70
   5   1   8   98.63    9.61
  -5  -1  -8   61.12    8.47
   5  -1   9  751.84   36.61
   5   1   9  747.80   36.47
  -5  -1  -9  770.70   33.56
  -5   1  -9  731.93   32.87
  -5  -1  -9  749.98   35.95
   5   1   9  746.81   33.81
  -5  -1  -9  756.15   40.38
  -5   1  -9  779.64   40.47
  -5   1  -9  767.44   41.30
  -5  -1  -9  683.57   39.15
   5  -1   9  708.52   36.84
   5   1   9  748.85   36.30
  -5  -1  -9  773.89   36.26
  -5  -1 -10   78.24    8.43
   5   1  10  104.91    9.42
  -5   1 -10   96.45    9.20
   5  -1  10   71.96   10.13
  -5  -1 -10   63.34   14.40
  -5   1 -10  109.78   16.07
   5   1  10   84.15   10.37
  -5  -1 -10   93.86   11.80
   5  -1  10  110.23   12.28
   5   1  10   80.04   10.55
  -5   1 -10   73.62   14.16
  -5  -1 -10   75.35   14.00
  -5  -1 -10  111.67   11.66
  -5  -1 -11    7.17    4.31
   5   1  11   13.54    4.89
   5   1  11   11.33    6.92
   5  -1  11   11.27    6.77
  -5   1 -11    7.06    6.00
  -5  -1 -11   11.05    8.28
  -5   1 -11   25.31   13.30
   5   1  11    9.61    6.85
   5  -1  11   15.72    7.83
  -5  -1 -11   21.76   12.35
  -5  -1 -11    7.30    6.93
   5  -1  12  220.97   18.20
   5   1  12  177.87   16.93
   5   1  12  187.88   14.21
  -5   1 -12  187.98   14.93
  -5  -1 -12  192.31   14.06
  -5  -1 -12  202.30   17.73
   5   1  12  160.78   16.43
   5  -1  12  215.99   18.96
  -5   1 -12  200.84   24.23
  -5  -1 -12  164.43   21.00
  -5   1 -12  221.57   19.13
  -5  -1 -12  199.32   17.10
   5   1  13   98.98   13.74
   5  -1  13   96.74   13.53
   5   1  13  104.44   10.76
  -5   1 -13  111.35   10.59
  -5  -1 -13  116.20   11.28
  -5  -1 -13  100.88   14.63
   5   1  13  117.18   14.50
   5  -1  13  116.21   14.72
  -5   1 -13  105.52   14.85
  -5  -1 -13  140.70   15.15
  -5   1 -14    8.07    9.57
  -5  -1 -14   -7.11    9.69
  -5  -1 -14   10.09   11.35
   5   1  14   10.13   10.23
   5  -1  14   -4.36    9.45
   5   1  14   -2.36    5.74
   5   1  14    2.04    8.69
   5  -1  14    2.03    8.07
   5   1  15   87.59   10.59
   5   1  15  103.86   14.71
   5  -1  15   66.95   13.27
  -5  -1 -15   89.73   13.68
   5   1  15   66.85   13.67
   5  -1  15   99.43   15.15
   5   1  16   57.03   12.77
   5  -1  16   73.25   13.77
   5   1  16   64.06   12.56
   5  -1  16   64.01   13.04
   5  -1  17   12.82   10.01
   5   1  17   14.41    9.56
   5  -1  17   21.67    9.76
   5   1  17    9.63    9.21
   5   1  18   55.33   12.24
   5  -1  18   40.23   13.04
   5  -1  18   63.04   13.62
   5   1  18   70.57   14.03
   5   1  19   -2.62   10.61
   5  -1  19   -2.79   10.43
   5  -1  19   -7.89   10.04
   5   1  19    2.63    8.93
   5  -1  20   -5.78   11.49
   5   1  20  -10.86   10.79
   5  -1  20   -2.72   10.18
   5   1  20   -2.72    9.23
   5   1  21   14.02   11.77
   5  -1  21   -5.97   10.40
   5  -1  21   14.08   10.98
   5   1  21    2.81    9.55
   5   1  22   37.42   13.54
   5  -1  22   39.84   13.59
   5   1  22   40.39   13.38
   5  -1  22   46.24   13.40
   5   1  23   55.99   15.01
  -5   2  24  106.91   26.25
   5   2 -23   -3.89   11.74
   5  -2 -23   19.18   13.37
  -5   2  23   41.03   21.91
  -5  -2  23   26.94   22.95
  -5   2  23    8.76   18.69
  -5  -2  23   -4.62   19.71
  -5   2  23    3.44   11.38
  -5  -2  22  117.44   27.08
  -5   2  22   89.81   23.64
  -5   2  22   79.69   17.78
   5   2 -22  158.13   23.24
   5  -2 -22  122.70   21.24
  -5   2  21   62.22   21.99
  -5  -2  21   52.57   22.71
  -5   2  21   44.74   13.29
   5   2 -21   54.43   16.09
   5  -2 -21   46.63   15.91
  -5  -2  20   33.88   20.08
   5   2 -20    3.48   11.19
   5  -2 -20    3.44   11.07
  -5   2  20   19.94   19.90
  -5   2  20   -6.13   10.41
   5  -2 -19   69.14   16.31
   5   2 -19  109.72   19.11
  -5   2  19   90.60   16.86
  -5  -2  19   85.34   23.04
   5   2 -18   25.27   11.29
   5  -2 -18   12.54   10.94
  -5   2  18   11.10    9.69
   5   2 -17   11.94    8.71
   5  -2 -17   29.68   12.25
  -5   2  17    7.88   10.03
  -5   2  17    7.39    4.62
   5   2 -16   16.85   10.73
   5  -2 -16    5.59    9.50
  -5   2  16    3.53    3.89
  -5   2  16    2.48    9.26
   5   2 -15    5.25    8.92
   5  -2 -15   28.80   11.36
  -5   2  15    3.37    4.64
   5  -2 -15    9.77    4.15
  -5  -2  15   -4.95    9.84
  -5   2  15    2.32    9.90
   5  -2 -14  209.68   21.21
   5   2 -14  234.28   21.90
  -5   2  14  246.45   15.79
   5  -2 -14  215.96   14.97
   5   2 -14  253.91   20.31
  -5   2  14  241.46   21.30
   5   2 -14  225.98   18.74
   5  -2 -14  235.69   19.19
  -5  -2  14  264.30   23.39
   5  -2 -13   92.52   14.17
   5  -2 -13   76.64   10.82
   5   2 -13   76.67   12.66
  -5   2  13   64.16    7.56
   5  -2 -13   72.24    7.92
  -5  -2  13   64.84   12.83
   5   2 -13   70.76   10.76
   5   2 -13   51.75   10.08
  -5   2  13   67.75   11.97
   5  -2 -12    1.55    4.98
   5  -2 -12   -4.14    8.55
   5   2 -12   -2.07    6.65
  -5   2  12   -0.94    3.37
  -5   2  12   -1.31    4.57
   5   2 -12    2.43    3.46
   5  -2 -12   -6.33    3.38
  -5   2  12    7.28    6.35
   5   2 -12   -1.51    5.66
  -5  -2  12    2.00    7.65
   5   2 -12    3.21    6.38
   5  -2 -11   -1.43    5.09
   5  -2 -11   -3.78    5.89
   5   2 -11    1.89    5.88
  -5   2  11    6.13    4.16
   5   2 -11    2.18    3.04
  -5   2  11    3.51    3.28
   5   2 -11    3.25    2.60
   5  -2 -11    2.53    2.87
  -5   2  11    3.30    4.98
   5   2 -11    1.41    5.28
  -5  -2  11   -7.39    7.48
   5   2 -11    5.91    5.28
   5  -2 -10   75.15   10.88
   5   2 -10  112.83   12.48
  -5   2  10  128.46   11.12
   5   2 -10  119.04    8.36
  -5   2  10  119.04    9.04
   5   2 -10   90.92    6.74
   5   2 -10  123.90   11.81
   5   2 -10  100.52   10.78
   5  -2 -10  113.80   11.04
  -5  -2  10   96.63   12.46
  -5   2  10  110.29   11.86
   5  -2 -10  106.99    8.69
   5  -2  -9   74.01    6.89
   5   2  -9   61.60    5.81
  -5   2   9   73.60    8.15
  -5   2   9   82.85    7.35
   5   2  -9   75.36    5.44
   5   2  -9   86.08    9.38
   5  -2  -9   81.49    9.06
   5   2  -9   76.92    9.79
   5  -2  -9   85.80   10.39
   5  -2  -9   89.69   10.24
   5   2  -9   74.74    9.57
   5   2  -9   69.27    8.67
  -5   2   9   57.42    8.59
  -5  -2   9   66.04   10.20
  -5   2   9   74.83   10.23
   5  -2  -8  594.45   25.90
   5   2  -8  584.28   24.19
  -5   2   8  598.97   28.01
  -5   2   8  573.96   25.91
   5   2  -8  576.69   23.17
   5  -2  -8  620.31   30.84
   5   2  -8  576.36   30.43
   5  -2  -8  585.46   29.65
   5   2  -8  541.07   29.26
  -5  -2   8  541.78   30.09
   5   2  -8  585.26   28.70
  -5   2   8  570.58   29.27
   5   2  -8  565.40   28.63
   5  -2  -8  610.51   28.82
  -5   2   8  554.91   30.64
   5  -2  -7   82.19    6.74
   5   2  -7   68.99    5.00
  -5   2   7   81.40    7.80
  -5   2   7   62.86    6.17
   5   2  -7   73.27    4.49
   5   2  -7   70.23    8.65
   5  -2  -7   67.27    7.36
   5  -2  -7   70.17    8.45
   5   2  -7   74.44    8.49
   5  -2  -7   64.38    8.18
  -5   2   7   64.36    8.64
   5   2  -7   70.06    7.95
  -5  -2   7   62.41    8.36
   5   2  -7   78.53    8.09
   5  -2  -6  432.09   19.21
   5   2  -6  426.00   16.50
  -5   2   6  375.32   18.73
   5   2  -6  402.69   15.86
   5   2  -6  405.30   21.91
   5  -2  -6  403.99   21.64
   5  -2  -6  419.29   20.64
  -5   2   6  372.99   21.76
  -5  -2   6  390.05   21.93
   5   2  -6  389.67   20.43
   5   2  -6  408.53   20.43
   5   2  -6  418.39   21.71
   5  -2  -6  372.41   20.75
   5   2  -5  218.46   13.93
   5  -2  -5  236.06   14.13
   5  -2  -5  252.83   13.53
  -5  -2   5  187.05   14.00
  -5   2   5  230.87   15.09
  -5   2   5  236.77   12.46
  -5  -2   5  243.25   14.70
   5   2  -5  218.58   13.12
  -5   2   5  242.85   14.79
   5   2  -5  219.35   12.86
  -5  -2   5  250.52   14.54
   5   2  -5  229.21   13.77
   5  -2  -5  229.64   13.64
  -5  -2   4   41.88    5.58
  -5   2   4   33.41    4.93
   5  -2  -4   37.99    4.38
   5   2  -4   29.86    4.12
  -5   2   4   39.27    5.66
  -5  -2   4   33.24    3.57
  -5   2   4   32.46    3.84
  -5  -2   4   36.79    5.28
  -5  -2   4   31.78    4.59
  -5   2   4   38.20    5.58
   5   2  -4   28.74    4.23
   5  -2  -4   39.81    4.69
  -5  -2   4   31.83    5.06
  -5  -2   3    1.23    2.20
  -5  -2   3   -0.87    1.98
  -5   2   3    1.10    1.71
   5  -2  -3    0.56    1.45
  -5   2   3    0.73    1.79
   5   2  -3    0.42    1.22
  -5  -2   3    1.73    2.06
  -5  -2   3   -0.72    2.80
  -5   2   3   -0.71    2.35
   5   2  -3   -2.26    1.76
   5  -2  -3    0.56    1.79
  -5  -2   3    0.76    2.21
  -5   2   3   -0.75    2.10
  -5   2   2  106.90    7.49
  -5  -2   2  110.13    7.71
   5   2  -2   97.71    4.61
  -5  -2   2   95.54    6.70
  -5   2   2   94.31    7.16
   5   2  -2   91.18    5.63
   5  -2  -2  116.54    7.33
  -5   2   2  103.62    8.10
   5   2  -2   89.14    6.50
   5  -2  -2  102.53    6.91
  -5  -2   2  104.02    6.63
  -5  -2   2  102.85    6.78
  -5  -2   1  700.62   28.96
  -5   2   1  730.46   29.10
   5   2  -1  696.81   26.11
  -5  -2   1  684.69   26.20
  -5  -2   1  679.53   28.73
  -5   2   1  694.15   29.11
  -5  -2   1  675.42   27.45
  -5   2   1  754.73   30.06
  -5  -2   1  685.17   30.14
   5  -2  -1  658.04   30.54
   5  -2  -1  719.02   28.73
   5   2  -1  731.56   28.63
  -5   2   1  703.04   28.58
  -5  -2   1  685.82   28.60
  -5  -2   1  675.08   27.20
   5   2   0 1512.41   57.70
  -5  -2   0 1493.72   58.10
  -5  -2   0 1487.34   55.78
  -5   2   0 1538.10   58.26
   5  -2   0 1577.44   59.87
  -5  -2   0 1516.29   58.26
  -5  -2   0 1524.42   55.65
   5   2   0 1501.97   55.39
  -5   2   0 1546.97   57.24
  -5  -2   0 1511.23   57.22
   5   2   1  835.99   36.75
  -5   2  -1  937.06   36.46
   5  -2   1  908.43   36.98
  -5  -2  -1  891.44   35.46
  -5  -2  -1  875.27   34.11
   5   2   1  872.10   33.89
  -5   2  -1  914.14   35.13
  -5  -2  -1  888.15   34.95
  -5   2  -1  870.98   35.38
  -5  -2  -1  909.30   35.66
   5   2   1  878.46   36.00
  -5  -2  -1  854.09   36.39
   5   2   2   13.88    3.31
  -5  -2  -2    8.62    2.19
   5   2   2    5.43    2.02
  -5  -2  -2    8.12    3.95
   5   2   2   11.67    3.04
   5  -2   2    2.75    2.64
  -5  -2  -2    8.31    2.54
  -5   2  -2    8.96    3.65
  -5   2  -2    5.67    2.70
  -5  -2  -2    9.89    3.05
  -5  -2  -3  803.84   35.57
   5   2   3  799.42   34.79
  -5  -2  -3  854.70   33.27
   5   2   3  812.85   32.97
   5  -2   3  863.51   35.21
   5   2   3  826.19   34.10
  -5  -2  -3  839.66   34.02
  -5   2  -3  804.10   35.46
  -5  -2  -3  819.70   34.56
  -5   2  -3  823.59   34.46
   5   2   3  834.19   34.18
   5  -2   3  824.64   34.19
   5   2   4  297.97   16.34
  -5  -2  -4  319.73   17.53
  -5  -2  -4  279.87   14.63
   5   2   4  308.12   14.84
   5   2   4  273.94   14.92
   5  -2   4  293.69   16.23
  -5  -2  -4  291.33   15.83
  -5   2  -4  316.95   17.79
  -5  -2  -4  276.83   16.22
   5   2   4  312.69   15.80
   5  -2   4  311.84   15.81
  -5   2  -4  305.39   16.54
  -5   2  -5  745.85   32.09
   5   2   5  660.24   29.85
  -5  -2  -5  665.13   31.52
   5  -2   5  702.57   30.19
  -5  -2  -5  682.23   28.91
   5   2   5  686.03   28.86
  -5  -2  -5  670.10   31.62
   5   2   5  677.28   30.64
   5   2   5  691.46   29.45
   5  -2   5  716.79   31.42
  -5  -2  -5  609.61   30.33
  -5   2  -5  662.05   32.48
  -5  -2  -5  629.94   28.45
   5  -2   6    7.18    4.02
   5   2   6    6.32    4.10
   5   2   6    0.70    2.19
  -5  -2  -6   -0.71    2.77
   5   2   6   -3.71    3.68
  -5   2  -6   -0.54    2.75
  -5   2  -6   -1.16    6.37
  -5  -2  -6    1.18    5.35
  -5  -2  -6   -1.10    5.47
   5   2   6   -1.60    3.19
  -5  -2  -6    3.30    6.01
   5  -2   6    1.06    3.71
  -5   2  -6    6.73    7.04
  -5  -2  -6    2.21    3.68
   5   2   7   -1.03    3.51
   5  -2   7   -1.03    3.75
  -5  -2  -7   -1.56    3.10
   5   2   7    1.00    4.10
  -5   2  -7    2.30    2.83
  -5  -2  -7   -4.13    7.43
  -5   2  -7    4.07    6.34
  -5  -2  -7   -1.19    6.24
  -5   2  -7   -3.11    7.76
   5   2   7   -2.80    3.98
  -5  -2  -7   -3.93    7.29
   5  -2   7   -2.40    4.29
  -5  -2  -7    1.73    4.26
  -5  -2  -8   67.14    6.87
  -5   2  -8   54.10    5.88
  -5  -2  -8   62.08    9.70
   5   2   8   60.33    7.76
   5   2   8   61.12    8.11
  -5  -2  -8   43.19   10.97
  -5   2  -8   52.15   11.25
   5  -2   8   46.52    7.51
   5  -2   8   39.10    7.46
  -5   2  -8   61.97   11.54
  -5  -2  -8   68.62   11.06
   5   2   8   55.56    7.42
  -5  -2  -8   54.18    7.30
  -5  -2  -9   -0.92    3.12
   5   2   9   -3.95    4.81
   5  -2   9    5.21    5.28
  -5  -2  -9   11.01    9.91
  -5   2  -9    7.27   10.11
  -5  -2  -9    1.39    6.92
  -5   2  -9    1.38    3.50
   5   2   9    9.00    5.11
  -5   2  -9   11.86   11.01
   5  -2   9   -2.99    5.59
  -5  -2  -9    6.93    9.26
   5   2   9    3.63    4.72
  -5  -2  -9    1.10    4.86
   5  -2  10  386.60   24.44
   5   2  10  478.39   25.96
  -5  -2 -10  405.72   22.01
  -5   2 -10  400.30   20.78
   5   2  10  438.39   23.81
  -5  -2 -10  437.89   26.28
  -5  -2 -10  442.29   30.20
  -5   2 -10  414.08   29.50
  -5   2 -10  389.10   29.64
  -5  -2 -10  398.16   28.56
   5   2  10  453.26   24.90
   5  -2  10  410.66   26.14
  -5  -2 -10  408.77   23.66
  -5  -2 -11   42.35    6.88
  -5  -2 -11   26.93   10.23
   5   2  11   43.49    8.14
   5   2  11   38.43    9.05
   5  -2  11   44.37    8.96
   5   2  11   57.16    9.44
   5  -2  11   61.18   10.79
  -5   2 -11   42.70   14.17
  -5  -2 -11   38.02   14.44
  -5  -2 -11   51.94    8.76
  -5  -2 -12   93.71   10.01
   5  -2  12   98.46   12.65
   5   2  12   78.42   11.70
   5   2  12   89.14   10.68
  -5  -2 -12   64.13   13.06
   5  -2  12   83.78   12.99
  -5   2 -12   94.35   18.79
   5   2  12  123.56   13.39
  -5  -2 -12   78.99   10.95
  -5  -2 -13   81.02    9.30
   5   2  13   79.27   10.55
  -5   2 -13   55.14   12.61
  -5  -2 -13   86.26   14.32
   5   2  13   71.42   11.78
   5  -2  13   79.47   13.31
   5  -2  13   71.03   11.86
   5   2  13   82.84   12.30
  -5  -2 -14  590.58   35.99
   5   2  14  611.63   31.64
   5   2  14  615.04   35.26
   5  -2  14  555.81   36.00
   5  -2  14  562.56   34.73
   5   2  14  590.24   34.97
   5   2  15   10.25    8.16
   5  -2  15    9.48    9.25
   5   2  15    7.12    6.39
   5   2  15   34.25   11.08
   5  -2  15   21.32    9.84
   5   2  16  541.39   29.66
   5   2  16  561.24   34.72
   5  -2  16  487.76   33.11
   5   2  16  567.40   34.53
   5  -2  16  467.49   33.96
   5   2  17   18.32    9.65
   5  -2  17   28.87   11.61
   5   2  17   33.30   11.61
   5  -2  17   28.53   10.69
   5   2  18  -11.99    9.53
   5  -2  18    5.48   10.89
   5  -2  18   14.95   11.81
   5   2  18   -4.98    9.51
   5   2  19   -2.50    9.75
   5  -2  19   22.80   11.33
   5   2  19   -2.59    9.05
   5  -2  19   20.80   10.53
   5   2  20    2.59    9.47
   5  -2  20   11.81   11.73
   5   2  20   -8.05   10.24
   5  -2  20   -8.11   10.53
   5  -2  21   18.25   11.13
   5   2  21    2.67   10.00
   5  -2  21   25.05   11.07
   5   2  21   16.63    9.67
   5   2  22   -2.74    9.80
   5  -2  22   15.62   11.68
   5   2  22    2.85   10.19
   5  -2  22    8.60    9.48
  -5   3  23   -3.40   12.41
  -5  -3  23   -4.59   18.60
  -5   3  23   17.59   19.39
  -5  -3  23    4.34   18.84
   5  -3 -23    3.76   11.73
   5   3 -23    3.84   14.05
  -5   3  22   26.26   12.04
  -5  -3  22    4.49   18.54
  -5   3  22   43.67   22.59
   5   3 -22   33.51   14.83
   5  -3 -22   32.85   13.97
  -5   3  21   43.98   19.75
  -5  -3  21   13.15   17.80
  -5   3  21   34.77   13.55
   5  -3 -21   45.82   14.59
   5   3 -21   43.05   14.59
  -5  -3  20  182.73   28.95
  -5   3  20  169.67   26.78
  -5   3  20  185.19   23.26
   5   3 -20  251.02   27.17
   5  -3 -20  209.92   24.89
  -5  -3  19   40.85   20.14
   5  -3 -19   12.96   12.11
   5   3 -19    3.28   10.56
  -5   3  19    2.90   10.36
   5   3 -18  155.75   21.65
   5  -3 -18  151.10   20.76
  -5   3  18  104.67   17.24
  -5  -3  18  113.42   22.66
  -5   3  18  134.17   12.64
   5  -3 -17   -8.76   10.91
   5   3 -17   -5.88    9.73
  -5   3  17    6.76    4.94
  -5   3  17   -5.21   10.36
   5  -3 -16    2.75    9.82
   5   3 -16   -2.76    8.87
  -5   3  16    7.28   11.66
  -5   3  16    5.17    4.73
  -5   3  16    4.92    8.57
   5  -3 -15   95.16   15.88
   5   3 -15  105.68   15.78
   5  -3 -15  103.81   10.53
  -5   3  15  115.39   11.03
  -5   3  15  142.32   16.94
   5   3 -14  121.91   16.31
   5  -3 -14   83.75   15.00
   5  -3 -14  100.18    9.97
  -5   3  14  109.24   10.43
   5   3 -14  112.79   13.99
  -5   3  14   87.36   13.46
   5  -3 -13   45.05    8.70
   5   3 -13   79.35   13.33
   5  -3 -13   50.80   11.70
   5  -3 -13   73.28    8.50
  -5   3  13   93.81   11.28
  -5   3  13   77.61    8.87
   5   3 -13   86.87   11.78
  -5   3  13   78.36   12.29
   5   3 -13   94.48   12.32
   5  -3 -12  125.57   15.25
   5   3 -12  117.04   14.62
   5  -3 -12  100.37   11.75
   5  -3 -12  137.73   11.14
  -5   3  12  154.14   13.70
  -5   3  12  121.71   10.72
  -5   3  12  138.06   14.36
   5   3 -12  152.83   14.71
   5   3 -12  144.14   14.43
  -5   3  11  303.18   20.40
  -5   3  11  368.31   19.47
   5   3 -11  332.56   23.62
   5  -3 -11  283.63   22.08
   5  -3 -11  317.53   18.11
   5  -3 -11  333.35   22.46
   5   3 -11  301.39   21.13
   5   3 -11  320.46   21.55
  -5   3  11  328.25   22.57
   5  -3 -11  329.92   20.97
  -5   3  10  329.02   20.23
   5   3 -10  322.09   16.04
  -5   3  10  336.43   18.50
   5  -3 -10  353.83   22.99
   5   3 -10  332.53   22.60
   5  -3 -10  316.36   18.01
   5   3 -10  345.04   21.91
   5  -3 -10  299.31   20.86
  -5  -3  10  292.99   22.55
   5   3 -10  333.67   20.89
   5  -3 -10  319.75   20.15
   5   3 -10  334.83   21.25
  -5   3  10  328.30   21.46
  -5   3   9  213.01   15.41
  -5   3   9  219.04   13.84
   5  -3  -9  220.81   16.81
   5   3  -9  234.43   17.46
   5  -3  -9  208.04   13.45
   5   3  -9  216.19   16.11
   5  -3  -9  204.34   15.88
   5   3  -9  207.27   15.40
   5   3  -9  204.75   15.51
  -5  -3   9  218.93   17.80
  -5   3   9  213.08   16.22
   5  -3  -9  238.67   15.73
  -5   3   9  219.53   17.88
  -5   3   8  258.86   16.25
  -5   3   8  229.68   14.05
  -5  -3   8  218.71   10.50
   5  -3  -8  215.70   13.42
   5   3  -8  223.86   15.00
   5  -3  -8  231.32   15.10
   5   3  -8  229.98   15.87
  -5  -3   8  203.08   16.43
  -5   3   8  228.72   17.29
   5   3  -8  251.06   16.43
   5  -3  -8  223.81   15.72
   5  -3  -8  240.50   16.63
   5   3  -8  260.20   17.21
   5  -3  -7   31.92    4.90
  -5  -3   7   40.79    3.84
  -5   3   7   36.17    5.10
   5   3  -7   37.27    6.47
  -5  -3   7   39.48    7.53
   5   3  -7   28.90    5.85
   5  -3  -7   20.89    5.30
   5   3  -7   41.31    5.94
   5  -3  -7   36.44    6.40
   5  -3  -7   38.99    5.65
  -5   3   7   46.57    7.51
   5   3  -7   32.73    6.03
  -5   3   6  855.18   36.09
  -5  -3   6  812.30   32.96
  -5   3   6  853.94   38.93
   5   3  -6  831.05   37.05
   5   3  -6  910.61   36.43
  -5  -3   6  867.25   38.80
   5   3  -6  866.16   37.21
   5  -3  -6  840.78   36.80
   5  -3  -6  850.19   37.45
   5  -3  -6  823.91   36.13
   5   3  -6  837.32   37.64
  -5   3   5  354.93   18.79
  -5  -3   5  378.26   17.09
   5   3  -5  351.90   19.04
   5   3  -5  398.35   18.60
  -5  -3   5  396.43   20.77
  -5   3   5  391.90   20.98
   5   3  -5  374.56   19.25
   5  -3  -5  378.29   19.01
   5  -3  -5  419.07   19.36
  -5   3   5  378.69   21.30
  -5  -3   5  389.33   21.29
  -5   3   4  425.48   19.72
   5   3  -4  408.71   16.11
  -5  -3   4  378.18   17.76
  -5   3   4  397.20   20.60
   5  -3  -4  398.41   18.85
  -5  -3   4  380.00   20.33
  -5  -3   4  355.09   19.59
   5   3  -4  382.78   18.70
   5   3  -4  376.19   17.77
  -5   3   4  428.79   20.90
   5  -3  -4  389.82   18.60
   5   3  -4  409.33   19.03
  -5  -3   4  378.56   20.57
  -5   3   4  398.89   20.94
  -5  -3   3 1105.54   43.67
   5   3  -3 1137.81   42.52
  -5  -3   3 1022.38   42.49
  -5   3   3 1174.65   44.45
   5   3  -3 1077.86   40.29
  -5  -3   3 1036.42   42.67
   5  -3  -3 1110.88   43.17
   5   3  -3 1062.14   41.09
  -5   3   3 1088.46   44.51
  -5  -3   3 1051.78   44.01
  -5   3   3 1082.49   44.14
  -5   3   3 1103.49   44.24
   5   3  -3 1036.37   42.54
   5  -3  -3 1103.46   42.73
   5   3  -3 1075.38   42.52
   5  -3  -3 1172.58   42.84
  -5  -3   3 1074.13   44.48
  -5   3   3 1054.97   44.27
  -5   3   2  392.01   18.68
  -5  -3   2  415.38   19.06
   5   3  -2  383.28   16.15
  -5  -3   2  374.11   18.61
   5   3  -2  408.26   18.03
  -5   3   2  407.10   19.19
   5   3  -2  378.66   15.83
  -5   3   2  406.37   19.06
   5  -3  -2  416.64   17.93
   5   3  -2  386.88   17.71
  -5  -3   2  382.95   17.78
  -5  -3   2  374.28   17.08
  -5   3   1  333.40   15.74
  -5  -3   1  337.99   15.86
   5   3  -1  319.66   14.02
   5   3  -1  310.93   15.75
  -5  -3   1  309.75   16.62
  -5  -3   1  327.11   14.24
  -5   3   1  349.90   16.44
  -5  -3   1  309.53   16.54
   5  -3  -1  296.14   17.15
  -5   3   1  365.04   16.59
   5  -3  -1  350.69   15.56
   5   3  -1  310.79   15.11
  -5  -3   1  307.16   13.82
  -5  -3   1  307.17   14.13
  -5  -3   0   77.37    5.62
   5   3   0   89.03    7.21
  -5  -3   0   75.97    7.68
  -5  -3   0   88.16    5.02
   5  -3   0  109.15    8.52
  -5  -3   0  105.81    7.31
  -5   3   0   90.45    7.01
  -5  -3   0   82.10    5.44
   5   3   0   90.37    5.83
  -5  -3   0   85.23    6.49
  -5   3   0   90.74    6.24
  -5   3   0   98.89    6.79
  -5  -3   0   78.69    6.08
   5   3   1    4.51    1.96
  -5  -3  -1    2.21    1.95
  -5  -3  -1    6.05    4.21
   5   3   1    6.64    3.20
  -5  -3  -1    4.66    2.15
   5  -3   1    1.49    2.47
  -5   3  -1    1.99    2.79
  -5  -3  -1    4.89    2.29
  -5   3  -1    6.22    2.01
  -5  -3  -1    5.37    2.55
  -5   3  -1    0.52    2.41
  -5  -3  -1    2.39    1.40
  -5  -3  -2   13.47    3.23
   5   3   2   13.43    2.85
   5   3   2   13.79    3.98
  -5  -3  -2   13.59    2.94
  -5  -3  -2   18.18    5.70
   5   3   2    9.61    3.24
   5  -3   2   16.06    3.54
  -5  -3  -2   10.72    2.64
  -5   3  -2   16.74    4.18
  -5  -3  -2    8.39    3.02
  -5   3  -2   16.13    3.30
   5   3   3    3.50    2.23
  -5  -3  -3    0.64    2.32
  -5  -3  -3   -0.61    2.44
  -5   3  -3    1.37    2.88
  -5  -3  -3    2.13    3.03
  -5  -3  -3   -1.04    5.08
   5   3   3   -0.89    3.47
   5   3   3    2.52    2.35
  -5   3  -3   -1.79    4.13
   5  -3   3    2.32    2.41
  -5  -3  -3   -0.57    2.86
   5   3   3    2.54    2.26
   5  -3   3    3.83    2.44
  -5   3  -4  138.45   10.48
  -5  -3  -4  133.39   10.64
   5   3   4  125.19    9.01
   5  -3   4  134.35    9.18
   5   3   4  133.87   10.79
  -5  -3  -4  126.95   12.13
  -5  -3  -4  140.36    9.77
  -5  -3  -4  163.64    9.85
   5   3   4  129.57    8.83
   5  -3   4  129.47   10.05
   5   3   4  119.35    8.51
  -5  -3  -4  120.71    9.23
  -5   3  -4  152.02   11.87
  -5  -3  -4  130.46    7.02
   5  -3   5  622.22   27.65
  -5  -3  -5  573.94   29.31
   5   3   5  593.96   27.46
  -5   3  -5  633.61   29.75
   5   3   5  607.56   29.41
  -5  -3  -5  599.58   27.91
  -5  -3  -5  605.55   27.23
   5   3   5  670.10   27.61
  -5  -3  -5  670.10   31.68
   5   3   5  606.16   26.60
   5  -3   5  618.81   29.20
  -5  -3  -5  622.25   28.55
  -5   3  -5  619.99   31.28
  -5  -3  -5  568.19   24.86
  -5   3  -6  176.87   14.92
   5   3   6  189.48   13.05
  -5  -3  -6  242.72   16.72
   5  -3   6  230.73   13.89
   5   3   6  254.80   15.84
  -5  -3  -6  219.71   13.99
   5   3   6  225.64   13.18
  -5  -3  -6  212.39   12.98
  -5  -3  -6  206.63   16.37
   5   3   6  211.72   12.60
   5  -3   6  219.63   14.98
  -5  -3  -6  183.13   14.86
  -5   3  -6  199.50   17.06
  -5  -3  -6  214.30   11.85
  -5   3  -7  191.25   16.42
   5  -3   7  196.16   13.38
  -5  -3  -7  198.28   16.50
   5   3   7  180.58   13.07
  -5  -3  -7  221.33   14.20
   5   3   7  199.67   12.82
  -5  -3  -7  201.75   12.85
   5   3   7  195.50   14.61
  -5  -3  -7  181.51   16.05
   5   3   7  173.13   12.21
   5  -3   7  191.59   14.69
  -5   3  -7  189.66   17.84
  -5  -3  -7  179.24   15.27
  -5  -3  -7  211.45   12.21
   5   3   8   21.64    5.44
   5  -3   8   26.99    5.92
  -5  -3  -8    9.87    4.06
   5   3   8   17.63    4.20
  -5  -3  -8   22.97    4.69
  -5   3  -8   21.46    3.97
  -5  -3  -8   21.49    9.83
  -5   3  -8   32.67   10.44
  -5  -3  -8   19.55    8.48
   5   3   8   18.92    5.85
   5  -3   8   19.35    6.40
  -5  -3  -8   19.34    8.70
   5   3   8    7.68    4.53
  -5   3  -8    5.63    9.28
  -5  -3  -8   24.42    4.87
  -5   3  -9  390.60   27.38
  -5  -3  -9  346.11   26.48
  -5   3  -9  382.77   18.33
   5   3   9  400.78   23.22
  -5  -3  -9  394.89   22.17
  -5  -3  -9  380.16   20.69
   5   3   9  374.06   20.52
  -5  -3  -9  379.14   25.18
  -5   3  -9  378.63   28.17
  -5  -3  -9  383.30   25.78
   5   3   9  361.06   20.90
   5  -3   9  394.48   24.41
   5   3   9  360.50   22.17
   5  -3   9  382.24   22.43
   5   3  10  222.60   17.13
  -5  -3 -10  224.35   16.52
  -5  -3 -10  213.61   15.02
   5   3  10  234.68   15.50
  -5  -3 -10  238.09   20.52
   5  -3  10  255.60   19.55
  -5  -3 -10  258.74   21.92
   5   3  10  245.41   16.99
  -5   3 -10  239.18   23.85
   5  -3  10  228.62   17.17
   5   3  10  263.08   18.15
   5   3  11  300.52   19.93
  -5  -3 -11  275.01   18.68
  -5  -3 -11  259.25   16.78
  -5  -3 -11  280.12   22.73
   5  -3  11  269.44   21.10
   5   3  11  233.82   17.98
  -5   3 -11  216.32   23.88
   5  -3  11  234.39   18.46
   5   3  11  266.28   19.46
   5   3  12  390.83   24.91
  -5  -3 -12  448.41   25.68
  -5  -3 -12  397.88   23.01
  -5  -3 -12  359.51   27.76
   5   3  12  410.80   25.27
   5  -3  12  460.00   28.90
  -5   3 -12  391.25   32.71
   5   3  12  447.52   27.05
   5  -3  12  406.01   26.14
  -5  -3 -13  205.02   21.55
   5   3  13  207.14   17.60
   5   3  13  206.55   17.99
   5  -3  13  227.60   20.60
   5   3  13  185.95   18.31
   5  -3  13  225.70   19.37
   5   3  14  126.51   13.89
   5  -3  14  129.24   15.41
   5   3  14  118.52   14.91
   5   3  14  112.50   13.96
   5  -3  14  131.70   17.06
   5   3  15   26.25    7.91
   5  -3  15   25.05    9.08
   5   3  15    6.30    7.16
   5   3  15   17.20    8.83
   5  -3  15   19.27   10.13
   5   3  16   15.07    7.73
   5   3  16    6.66    7.55
   5  -3  16   24.33    9.61
   5  -3  16   15.24    9.91
   5   3  16    2.03    7.08
   5   3  17    8.52    6.77
   5   3  17   23.59    9.75
   5  -3  17   13.32   10.18
   5  -3  17    4.66    8.33
   5   3  17   -9.33    9.27
   5   3  18   87.56   14.54
   5  -3  18  105.70   17.34
   5   3  18   85.36   15.03
   5  -3  18   75.77   14.20
   5  -3  19   46.20   14.50
   5   3  19   50.80   13.38
   5  -3  19   43.37   12.84
   5  -3  20   -2.99   11.17
   5   3  20   10.50   10.23
   5  -3  20   -2.65    9.90
   5  -3  21   18.47   11.76
   5  -3  21    5.46    9.29
   5   3  21   21.67   11.57
   5  -3  22   12.62   11.28
   5   3  22    5.57   11.08
   5  -3  22   30.93   12.97
  -5   4  23   10.06   12.55
  -5   4  23   49.89   21.98
  -5  -4  23   -4.15   18.60
   5  -4 -23   14.60   12.73
  -5   4  22   -3.25   11.60
  -5  -4  22   -4.46   19.02
  -5   4  22   -8.24   17.00
  -5  -4  22   12.39   19.04
   5   4 -22  -10.87   13.84
   5  -4 -22   -7.08   11.71
  -5  -4  21   13.04   18.87
  -5   4  21   18.79   11.97
   5   4 -21   20.95   12.19
   5  -4 -21   17.10   12.80
  -5  -4  20   21.17   20.07
  -5   4  20   18.04   11.49
   5   4 -20    6.69   10.43
   5  -4 -20    3.29    9.93
  -5   4  19   15.68    6.49
  -5  -4  19   32.70   19.38
  -5   4  19   17.25   10.99
   5  -4 -19   15.74   11.26
   5   4 -19   12.74   11.12
  -5   4  18  206.66   16.78
   5   4 -18  235.44   24.91
   5  -4 -18  236.60   25.06
  -5  -4  18  224.19   30.18
  -5   4  18  188.60   21.76
   5   4 -17    8.53   10.16
   5  -4 -17   14.17   11.04
  -5   4  17    1.47    4.87
  -5  -4  17    3.76   16.04
  -5   4  17   -2.59    9.89
  -5   4  17   21.29   12.95
   5   4 -16    2.67    8.31
   5  -4 -16   -2.66    7.77
  -5   4  16    2.84    4.43
  -5   4  16   17.06    9.11
  -5   4  16   10.73   11.06
   5   4 -15   -2.48    9.08
   5  -4 -15   -2.49    7.52
  -5   4  15   -2.27    8.86
  -5   4  15    2.74    4.40
   5   4 -14   22.97    9.66
   5  -4 -14   34.70   10.68
  -5   4  14   10.59    6.91
  -5   4  14   15.81    5.57
  -5   4  14   16.85    7.90
   5   4 -14   26.89    8.64
  -5   4  13  173.96   13.66
  -5   4  13  148.17   14.91
   5  -4 -13  179.13   17.92
   5   4 -13  131.02   16.18
   5  -4 -13  164.30   13.04
   5  -4 -13  186.21   16.95
   5  -4 -13  154.52   14.58
   5   4 -13  133.85   15.38
  -5   4  13  155.37   16.41
   5   4 -13  174.39   16.49
  -5   4  12  207.48   17.08
  -5   4  12  203.35   15.07
   5  -4 -12  214.48   19.09
   5   4 -12  218.35   19.30
   5  -4 -12  212.21   14.87
   5   4 -12  217.45   17.95
   5  -4 -12  178.91   16.80
   5  -4 -12  229.50   17.02
  -5   4  12  217.83   18.53
   5   4 -12  195.20   17.51
   5   4 -12  250.51   18.76
  -5   4  11   75.53   10.17
   5  -4 -11   97.18   12.12
   5   4 -11   73.72   10.90
   5  -4 -11   49.33    8.12
  -5   4  11   80.05    8.86
   5  -4 -11   63.43    7.78
   5   4 -11   74.30   10.55
   5  -4 -11   81.17   10.98
   5   4 -11   78.27   10.80
   5   4 -11   71.33   10.27
  -5   4  11   89.81   11.38
  -5   4  10   89.29    8.97
  -5   4  10   93.13   10.80
   5   4 -10   88.67   11.32
   5  -4 -10   87.87    9.85
   5  -4 -10   87.08   11.11
   5  -4 -10   89.84    8.98
   5  -4 -10   66.52    9.40
   5   4 -10  118.49   11.88
   5   4 -10   90.71   11.24
   5   4 -10   71.25   10.00
  -5   4  10   94.13   11.16
  -5   4   9  444.15   25.70
  -5   4   9  449.00   24.23
   5   4  -9  499.14   27.14
   5  -4  -9  440.11   24.26
   5  -4  -9  471.22   26.48
   5  -4  -9  500.52   24.23
   5   4  -9  448.33   25.35
   5  -4  -9  446.65   25.25
   5   4  -9  438.87   24.56
   5   4  -9  480.92   26.44
  -5   4   9  472.66   28.53
  -5   4   8   -1.29    4.03
   5  -4  -8    7.08    3.61
   5   4  -8    1.26    4.17
   5  -4  -8    2.47    3.73
   5   4  -8    4.09    4.14
   5  -4  -8    3.82    3.25
  -5   4   8    3.19    3.21
   5   4  -8   -1.14    3.78
   5  -4  -8    2.24    3.71
   5   4  -8    9.90    5.70
  -5   4   8    7.79    5.70
  -5   4   7 1397.33   55.17
   5   4  -7 1349.86   56.06
   5   4  -7 1339.17   54.02
  -5   4   7 1391.09   58.17
   5   4  -7 1344.89   54.97
   5  -4  -7 1292.40   54.44
   5   4  -7 1246.98   55.04
   5  -4  -7 1339.52   54.19
   5  -4  -7 1274.64   54.93
  -5   4   6  529.30   25.53
  -5  -4   6  506.84   22.89
   5   4  -6  533.46   26.21
   5   4  -6  504.64   24.00
  -5   4   6  506.44   27.14
   5  -4  -6  511.39   24.53
   5   4  -6  514.07   24.98
   5  -4  -6  533.09   24.75
   5   4  -6  569.69   26.11
  -5   4   5  832.40   35.69
  -5  -4   5  788.48   33.30
   5  -4  -5  820.82   34.16
   5   4  -5  824.26   35.34
   5   4  -5  800.44   32.99
  -5   4   5  818.39   36.81
   5   4  -5  777.01   33.84
   5  -4  -5  767.99   33.51
  -5  -4   4  186.85   11.72
   5   4  -4  185.33   10.11
   5   4  -4  178.44    9.54
  -5   4   4  158.04   11.62
  -5   4   4  186.69   12.88
   5  -4  -4  182.26   10.97
  -5  -4   4  174.91   12.49
  -5   4   4  172.47   11.58
   5   4  -4  170.92    9.54
   5   4  -4  175.78   11.42
  -5   4   4  172.85   12.33
   5   4  -4  178.49   10.60
   5  -4  -4  180.60   10.44
  -5  -4   3  205.44   12.84
  -5   4   3  180.83   12.39
   5   4  -3  197.98    8.86
   5   4  -3  195.60   11.15
   5   4  -3  202.21   10.45
  -5   4   3  205.51   13.06
  -5  -4   3  210.29   13.08
  -5   4   3  196.92   12.59
  -5   4   3  172.82   12.02
  -5  -4   3  212.87   12.79
   5   4  -3  201.80    9.31
  -5   4   3  205.12   12.17
   5  -4  -3  221.23   11.28
   5   4  -3  178.25   10.62
   5   4  -3  194.49   11.21
  -5  -4   2  546.63   25.36
  -5   4   2  554.38   25.28
   5   4  -2  539.25   22.33
  -5  -4   2  502.26   26.33
   5   4  -2  598.99   24.00
   5   4  -2  584.39   25.33
  -5  -4   2  551.55   25.21
  -5   4   2  587.98   26.23
  -5   4   2  558.07   25.19
  -5   4   2  619.43   25.56
   5   4  -2  581.42   24.14
   5  -4  -2  670.54   24.73
   5   4  -2  539.42   23.41
   5   4  -1  108.96    6.15
   5   4  -1   76.81    6.00
   5   4  -1   69.68    7.02
  -5   4   1   89.44    7.23
  -5  -4   1   86.31    7.39
  -5   4   1   77.23    6.89
  -5  -4   1   84.39    9.06
   5  -4  -1   85.32    8.01
   5   4  -1   79.59    4.94
  -5   4   1   66.83    6.07
  -5  -4   1   92.64    6.91
  -5  -4   0  203.23   11.05
  -5   4   0  214.51   11.10
   5   4   0  204.66   11.08
  -5  -4   0  214.33   11.31
   5   4   0  188.04   12.45
  -5   4   0  232.23   12.41
  -5   4   0  189.51   11.69
   5  -4   0  203.88   13.00
  -5  -4   0  190.65   11.08
  -5  -4   0  178.33   13.78
  -5  -4   0  184.58    8.51
  -5   4   0  199.83   10.81
  -5  -4   0  204.43   10.83
  -5  -4   0  213.57   11.20
  -5   4   0  215.99   10.84
   5   4   1  112.54    7.54
  -5  -4  -1  101.16    7.32
   5   4   1   98.28    8.82
  -5  -4  -1   98.28    4.88
   5  -4   1   90.06    8.16
  -5  -4  -1   91.38   10.35
  -5  -4  -1   97.05    6.66
  -5   4  -1  108.29    8.67
  -5  -4  -1   87.66    7.01
  -5   4  -1  106.22    7.26
  -5  -4  -1  109.35    7.08
  -5   4  -1   98.71    6.64
  -5  -4  -2   49.15    5.37
   5   4   2   54.43    5.50
  -5  -4  -2   58.01    5.07
  -5  -4  -2   67.51    9.30
   5   4   2   60.23    7.44
   5  -4   2   67.93    6.68
  -5   4  -2   47.93    6.66
  -5  -4  -2   55.43    4.83
  -5   4  -2   57.99    4.96
  -5  -4  -2   54.23    5.84
  -5   4  -2   58.46    5.81
  -5  -4  -3   26.07    4.17
   5   4   3   32.79    4.34
  -5  -4  -3   38.92    5.25
   5   4   3   35.39    6.34
   5   4   3   26.29    4.20
  -5  -4  -3   35.59    8.18
   5  -4   3   29.37    4.83
  -5   4  -3   39.29    6.74
  -5  -4  -3   21.60    4.04
  -5  -4  -3   38.23    5.39
  -5   4  -3   26.02    4.86
   5   4   4  465.37   25.04
   5   4   4  501.86   22.66
  -5  -4  -4  485.49   22.80
  -5  -4  -4  455.47   22.37
   5   4   4  464.09   21.61
   5  -4   4  462.62   23.21
  -5  -4  -4  458.57   26.61
  -5  -4  -4  470.78   22.08
  -5   4  -4  491.92   25.77
   5   4   4  486.36   22.12
  -5  -4  -4  457.43   23.59
  -5   4  -4  426.94   23.16
   5  -4   4  474.97   21.93
  -5   4  -5   -4.24    6.17
  -5  -4  -5    1.08    5.78
  -5  -4  -5    2.54    2.95
   5   4   5    0.82    2.49
  -5  -4  -5    6.20    4.02
   5   4   5    4.93    5.43
  -5  -4  -5   -5.79    7.40
   5   4   5   -1.23    2.96
   5  -4   5    1.99    3.95
  -5  -4  -5   -4.31    5.77
  -5   4  -5   -4.14    7.38
   5   4   5   -0.74    3.48
   5  -4   5   -0.74    3.42
  -5  -4  -6    6.37    6.59
  -5   4  -6   -7.55    7.34
  -5  -4  -6   -1.86    3.48
   5   4   6    0.89    3.03
  -5  -4  -6   -1.95    4.01
   5   4   6    6.56    5.60
  -5  -4  -6    1.54    7.30
   5   4   6    3.26    2.49
  -5   4  -6   -1.58    8.09
  -5  -4  -6   -1.05    6.23
   5  -4   6   -1.12    4.01
   5  -4   6   -0.83    3.32
   5   4   6    5.90    3.29
   5   4   7  205.08   16.07
  -5  -4  -7  229.94   14.96
   5   4   7  202.03   13.56
  -5  -4  -7  214.90   14.10
   5   4   7  226.75   12.84
  -5  -4  -7  241.88   19.61
  -5  -4  -7  180.63   15.86
   5  -4   7  193.51   15.14
  -5   4  -7  193.76   19.10
  -5  -4  -7  180.20   16.64
   5  -4   7  192.93   13.40
  -5   4  -7  233.41   18.28
   5   4   7  192.12   13.53
  -5  -4  -8    8.59    9.75
  -5   4  -8   22.25   10.16
  -5  -4  -8   10.31    4.11
  -5  -4  -8    6.87    4.73
   5   4   8    1.02    3.30
   5   4   8   10.19    6.72
  -5  -4  -8   24.28   10.81
  -5   4  -8    9.97   10.08
   5   4   8    9.16    4.01
  -5  -4  -8   12.85    9.45
   5  -4   8    9.79    5.88
   5  -4   8    6.41    4.57
   5   4   8    6.53    4.65
   5   4   9  320.24   21.53
  -5  -4  -9  327.23   19.99
  -5  -4  -9  325.79   18.98
   5   4   9  310.33   18.62
  -5  -4  -9  312.32   24.32
  -5   4  -9  337.29   27.57
   5  -4   9  336.69   22.10
   5   4   9  295.91   17.99
   5   4   9  319.82   19.86
   5  -4   9  297.79   19.27
  -5  -4 -10  332.48   21.20
  -5  -4 -10  331.80   20.13
   5   4  10  374.04   20.73
  -5  -4 -10  335.07   26.03
   5   4  10  308.60   19.59
  -5   4 -10  317.87   28.21
   5  -4  10  347.02   23.57
   5  -4  10  343.78   21.56
   5   4  10  323.68   21.27
  -5  -4 -11   20.44    5.70
   5   4  11   23.19    5.63
  -5  -4 -11   33.52    7.60
   5  -4  11   20.28    8.31
   5   4  11   37.77    7.95
  -5   4 -11   50.93   16.27
   5  -4  11   29.47    8.34
   5   4  11   30.05    8.00
  -5  -4 -11   28.98   13.43
   5   4  11   26.38    8.58
   5   4  12   21.81    6.04
   5  -4  12    9.96    8.53
   5   4  12   22.99    7.99
   5  -4  12   19.37    7.48
   5   4  12   22.93    8.59
   5   4  12   22.20    9.05
   5   4  13   24.22    6.25
   5   4  13   24.59    8.90
   5  -4  13   31.44    8.64
   5   4  13   17.72    7.85
   5   4  13   17.78    7.16
   5  -4  13   10.70    8.86
   5   4  14   99.44   13.31
   5  -4  14  102.67   15.22
   5  -4  14   79.08   12.09
   5   4  14   93.23   13.49
   5   4  15  283.22   21.94
   5  -4  15  261.12   23.67
   5  -4  15  257.42   21.77
   5   4  15  271.19   22.10
   5   4  16    5.66    7.51
   5  -4  16   19.28    8.69
   5   4  16    8.55    8.35
   5  -4  16   33.18   11.61
   5   4  17   91.97   13.47
   5  -4  17   81.37   13.66
   5   4  17   92.09   14.87
   5  -4  17   93.69   15.92
   5   4  18    1.94    7.41
   5  -4  18   -2.79    9.73
   5   4  18   -4.70    8.58
   5  -4  18   -4.74    8.47
   5  -4  19   -5.80   11.07
   5   4  19    2.44    9.71
   5  -4  19   12.34    9.99
   5  -4  20    8.99   10.20
   5   4  20   10.12    8.84
   5  -4  20   33.31   10.95
   5  -4  21    6.16   11.52
   5   4  21    5.21    9.96
   5  -4  21    2.65    9.68
   5  -4  22    8.15   10.37
   5   4  22  -10.68    9.76
  -5  -5  22   43.75   23.67
  -5  -5  21   12.84   17.66
  -5   5  20   -5.20    5.73
  -5  -5  20   -4.18   15.96
  -5   5  20   14.86   11.81
   5   5 -20   12.69   11.86
  -5   5  19    1.69    5.10
   5   5 -19    3.02    9.70
  -5   5  19   -5.70   11.11
  -5   5  18   72.42   10.36
  -5   5  18   63.83   16.62
   5   5 -18   71.35   14.93
  -5  -5  18   74.50   21.08
  -5   5  18   48.86   12.90
  -5   5  17   32.12    7.66
  -5   5  17   14.50   12.82
   5   5 -17   21.47   11.30
  -5  -5  17    3.76   15.81
  -5   5  17   33.47   10.46
  -5   5  16  236.88   18.39
  -5   5  16  229.34   25.59
  -5  -5  16  219.14   28.15
   5   5 -16  215.68   22.43
   5  -5 -16  272.29   24.70
  -5   5  16  275.93   23.79
   5   5 -15  116.59   15.78
   5  -5 -15  116.31   15.94
  -5   5  15  133.25   16.49
  -5   5  15  126.40   12.80
  -5   5  15  113.43   13.91
   5  -5 -14    6.59    7.27
   5   5 -14   -4.31    7.12
  -5   5  14   -2.10    6.33
  -5   5  14    1.45    4.67
  -5   5  14    1.91    6.49
   5   5 -13   53.42   10.95
   5  -5 -13   48.48   10.37
  -5   5  13   50.52   10.76
  -5   5  13   51.81    8.38
  -5   5  13   62.15   10.54
   5  -5 -12  437.53   29.02
   5   5 -12  459.67   29.05
  -5   5  12  521.00   29.77
  -5   5  12  498.76   26.81
   5   5 -12  418.12   28.09
  -5   5  12  516.02   29.93
   5  -5 -12  478.14   27.06
  -5   5  11  235.18   16.92
  -5   5  11  266.20   19.78
   5  -5 -11  258.43   19.54
   5  -5 -11  261.70   17.56
   5   5 -11  248.52   19.08
   5  -5 -11  234.65   16.58
   5   5 -11  222.31   17.47
   5   5 -11  219.35   18.80
  -5   5  11  280.58   20.07
  -5   5  10  107.71   10.55
  -5   5  10  123.88   12.57
   5  -5 -10   84.31   10.90
   5   5 -10   86.88   10.98
   5  -5 -10  107.49   10.18
   5  -5 -10  111.75   10.74
   5   5 -10   93.29   10.44
  -5   5  10   77.70   10.68
   5   5 -10  136.40   13.40
  -5   5   9  352.37   21.46
  -5   5   9  372.64   23.30
   5  -5  -9  400.14   21.17
   5  -5  -9  354.85   21.89
   5   5  -9  331.85   21.50
   5  -5  -9  403.47   21.56
   5   5  -9  340.17   20.97
   5   5  -9  343.79   22.67
  -5   5   9  366.32   24.69
  -5   5   8  313.03   19.80
  -5   5   8  333.30   22.50
   5   5  -8  312.28   20.76
   5   5  -8  343.05   19.42
   5   5  -8  359.19   20.42
   5  -5  -8  350.90   20.18
   5  -5  -8  321.32   18.59
  -5   5   7  196.70   14.30
   5   5  -7  208.77   14.04
   5  -5  -7  196.40   13.01
  -5   5   7  172.51   15.08
   5   5  -7  202.76   15.17
   5  -5  -7  227.68   13.61
   5   5  -7  216.24   13.67
  -5   5   6   -1.12    3.03
  -5   5   6   -1.31    4.20
   5   5  -6    3.40    3.14
   5  -5  -6    0.80    2.59
  -5   5   6    0.83    3.38
   5   5  -6   -2.13    4.47
   5   5  -6   -0.79    2.61
   5  -5  -6   -0.75    2.48
   5   5  -5  187.14   10.41
   5   5  -5  149.11    9.43
  -5   5   5  154.90   12.11
   5  -5  -5  154.28   10.51
  -5  -5   5  152.47   11.85
  -5   5   5  171.72   11.28
   5   5  -5  155.24   12.09
  -5   5   5  172.74   13.08
   5   5  -5  171.55    9.69
   5   5  -5  154.65   10.09
   5  -5  -5  147.92    9.88
   5   5  -4   98.33    8.53
  -5   5   4   83.95    8.38
   5   5  -4   80.67    5.32
   5   5  -4   83.28    6.94
  -5   5   4   77.92    8.20
   5   5  -4   66.94    6.10
  -5   5   4   87.48    7.59
  -5  -5   4   72.81    9.03
   5  -5  -4   75.43    6.15
   5   5  -4   74.06    6.14
   5   5  -4   76.95    6.18
   5   5  -3   90.37    6.06
   5   5  -3   80.43    6.76
  -5   5   3   95.99    9.15
   5   5  -3   94.02    7.73
  -5  -5   3   78.77    8.17
  -5   5   3   88.13    8.43
   5   5  -3   86.66    4.64
  -5   5   3  102.53    8.75
  -5   5   3  104.10    7.83
  -5  -5   3   86.35    9.60
   5   5  -3  113.16    6.97
   5  -5  -3   91.94    6.54
   5   5  -3   90.89    7.80
  -5  -5   2  292.01   15.48
  -5   5   2  269.04   15.12
   5   5  -2  291.56   13.52
   5   5  -2  272.60   14.52
   5   5  -2  283.57   15.94
  -5   5   2  259.41   14.85
  -5   5   2  282.32   16.00
  -5  -5   2  264.14   14.95
  -5  -5   2  281.02   18.06
  -5   5   2  317.85   15.30
   5   5  -2  310.93   13.93
   5   5  -2  268.47   13.90
  -5  -5   1  178.67   10.95
  -5   5   1  184.95   10.89
   5   5  -1  191.07   10.45
   5   5  -1  172.83   10.83
   5   5  -1  183.96   12.55
  -5   5   1  183.53   11.86
  -5  -5   1  172.71   10.64
  -5  -5   1  194.92   11.51
  -5  -5   1  189.11   14.89
  -5   5   1  178.62   11.09
   5   5  -1  194.74    9.41
  -5  -5   1  181.71   10.38
  -5   5   1  178.23   10.09
  -5  -5   0 1657.89   62.48
  -5   5   0 1645.93   62.20
   5   5   0 1645.70   62.74
   5   5   0 1682.61   63.86
   5   5   0 1660.90   66.04
  -5   5   0 1668.21   64.10
  -5  -5   0 1683.62   68.41
  -5  -5   0 1611.81   61.83
   5  -5   0 1618.95   65.41
  -5   5   0 1608.15   63.76
  -5   5   0 1673.20   61.88
  -5  -5   0 1627.87   61.94
   5   5   1  922.16   37.95
   5   5   1  945.49   38.54
  -5  -5  -1  892.00   38.19
   5   5   1  957.50   41.26
  -5  -5  -1  959.09   36.92
  -5  -5  -1  915.18   35.69
   5  -5   1  881.95   39.29
  -5  -5  -1  941.42   43.39
  -5   5  -1  947.19   39.44
  -5   5  -1  886.30   36.20
  -5   5  -1  914.84   36.80
  -5  -5  -1  925.38   36.51
  -5  -5  -1  934.84   37.04
   5   5   2  973.11   40.04
  -5  -5  -2  927.83   44.83
   5  -5   2  950.21   40.41
   5   5   2  966.79   42.89
  -5  -5  -2  958.24   39.96
  -5   5  -2  983.19   41.84
  -5   5  -2  973.90   38.93
  -5  -5  -2  921.65   37.62
  -5  -5  -2  986.58   39.18
  -5   5  -2  937.51   37.57
   5   5   3  230.56   13.75
   5  -5   3  214.30   13.81
  -5  -5  -3  221.92   18.32
   5   5   3  205.97   15.61
  -5  -5  -3  219.54   13.57
  -5   5  -3  254.19   16.46
  -5  -5  -3  225.73   13.99
  -5   5  -3  208.74   13.62
   5   5   4  127.70   10.16
  -5  -5  -4  137.76   10.52
   5   5   4  136.11   12.87
   5  -5   4  158.45   11.27
   5   5   4  124.02    9.27
  -5  -5  -4  124.90   15.62
  -5   5  -4  124.84   13.43
  -5  -5  -4  156.38   12.40
  -5   5  -4  148.37   11.84
   5   5   5    9.46    3.69
  -5  -5  -5    7.52    3.52
  -5  -5  -5   10.25    6.99
  -5   5  -5    9.02    7.51
  -5  -5  -5   10.17   10.24
   5   5   5    2.84    5.85
   5   5   5    6.60    3.49
  -5   5  -5    3.04    8.72
   5  -5   5   12.18    4.62
   5  -5   5    5.08    3.45
   5   5   5    5.12    3.23
   5   5   6  240.63   14.88
  -5  -5  -6  242.54   15.49
  -5  -5  -6  210.44   14.31
   5   5   6  210.82   17.07
  -5  -5  -6  240.43   20.39
   5   5   6  215.05   12.45
   5  -5   6  195.35   14.84
  -5   5  -6  206.14   19.13
   5  -5   6  216.24   13.43
  -5  -5  -6  238.82   18.26
  -5   5  -6  243.51   17.88
   5   5   6  190.59   12.91
   5   5   7  498.40   25.57
  -5  -5  -7  538.68   26.87
  -5  -5  -7  491.04   25.48
   5   5   7  538.83   29.66
  -5  -5  -7  487.90   31.79
  -5   5  -7  477.07   29.70
  -5   5  -7  484.17   31.92
   5  -5   7  468.04   26.73
   5   5   7  501.51   24.67
   5  -5   7  507.22   24.67
  -5  -5  -8  106.75   11.12
  -5  -5  -8  128.51   11.16
   5   5   8  111.15   10.61
   5   5   8  133.13   14.03
  -5  -5  -8  164.76   18.35
   5  -5   8  127.15   12.80
  -5   5  -8   95.14   16.61
   5   5   8  145.66   11.51
   5  -5   8  107.62   10.32
  -5  -5  -9   68.51    9.30
   5   5   9   69.36    8.51
  -5  -5  -9   93.79   17.24
   5   5   9   83.98   11.96
  -5  -5  -9   79.50    9.09
  -5   5  -9   98.63   17.45
   5  -5   9   70.74   10.73
   5  -5   9   79.92    9.26
   5   5   9   82.66    9.77
  -5  -5 -10    9.60    6.06
   5   5  10   10.07    4.82
   5   5  10   24.93    8.56
  -5  -5 -10    9.98    4.97
   5  -5  10    3.37    6.96
  -5   5 -10   12.34   14.90
   5  -5  10   17.57    6.27
   5   5  10   12.82    6.25
   5   5  11   38.29    7.20
   5  -5  11   47.61   11.33
   5   5  11   40.93    8.50
   5  -5  11   34.62    7.98
   5   5  11   51.50   11.47
   5   5  12   -2.77    4.95
   5   5  12   -5.70    8.11
   5  -5  12    3.96    7.86
   5  -5  12    9.13    7.02
   5   5  12   -1.54    5.89
   5   5  13   13.65    8.07
   5   5  13   20.20    6.39
   5  -5  13   10.62    8.30
   5  -5  13   29.77    8.48
   5   5  13   18.36    7.27
   5   5  14    3.99    7.63
   5   5  14   10.49    5.10
   5  -5  14   -4.53    8.28
   5   5  14    1.79    6.41
   5  -5  14   14.25    7.73
   5   5  15   -4.09    7.81
   5   5  15   -1.56    4.54
   5  -5  15    2.40    8.78
   5  -5  15    1.91    6.66
   5   5  15   -1.91    6.99
   5  -5  16   20.26    9.87
   5   5  16   -2.08    8.11
   5   5  16    4.04    7.88
   5  -5  17   98.27   16.18
   5   5  17   74.01   13.52
   5   5  17   87.09   13.27
   5  -5  18    8.31   10.13
   5   5  18    2.14    8.17
   5   5  18   -6.66    8.65
   5  -5  19    8.63    9.77
   5   5  19   -6.47    8.06
   5  -5  20   32.64   13.13
  -5  -6  21    8.36   17.84
  -5   6  21    5.65    7.05
  -5  -6  20   16.32   19.08
  -5   6  20   -3.70    5.40
  -5  -6  19  166.55   26.48
  -5   6  19  182.10   17.14
  -5   6  19  209.40   25.20
  -5  -6  18   26.98   18.52
  -5   6  18   10.68    6.95
  -5   6  18    3.12   13.10
  -5  -6  17   55.70   20.21
  -5   6  17   67.85   10.97
  -5   6  17   99.37   19.07
  -5   6  16    6.62    6.20
  -5   6  16    1.69    5.11
  -5  -6  16   21.39   17.35
  -5   6  16   -2.40    8.17
  -5   6  16   18.55   14.05
  -5   6  15   14.81    6.56
  -5   6  15    8.52    7.06
  -5  -6  15    3.41   16.39
  -5   6  15   15.74    8.78
  -5   6  15   18.49   14.41
  -5   6  14  242.58   20.79
  -5   6  14  218.85   17.69
  -5   6  14  237.01   20.83
  -5  -6  14  229.53   26.69
  -5   6  13   -1.95    5.89
  -5  -6  13   18.31   14.66
  -5   6  13    3.94    6.70
  -5   6  13    1.55    4.19
  -5   6  12    9.06    5.13
  -5   6  12   -1.81    5.98
  -5   6  12    7.57    6.08
  -5   6  11  644.00   34.23
  -5   6  11  558.59   33.47
  -5   6  11  601.19   32.06
  -5   6  10   30.56    7.08
  -5   6  10   31.45    8.24
  -5   6   9    8.62    5.26
  -5   6   9    5.59    7.12
  -5   6   9   11.80    6.44
  -5   6   8    4.10    4.52
  -5   6   8   10.22    7.15
  -5   6   7    1.33    3.73
  -5   6   7    9.25    6.36
   5  -6  -7   -0.87    3.03
   5  -6  -6  237.25   14.06
  -5   6   6  233.33   16.59
  -5   6   6  243.07   17.25
  -5   6   5  197.10   14.57
   5   6  -5  182.15   11.41
   5   6  -5  186.01   11.86
  -5   6   5  196.27   14.61
   5   6  -4   62.88    6.96
  -5   6   4   68.03    8.30
   5   6  -4   59.57    6.31
  -5   6   4   47.14    7.24
  -5   6   3  965.11   44.24
   5   6  -3 1075.29   43.03
  -5   6   3 1046.86   46.50
   5   6  -3 1056.29   43.56
  -5  -6   2  150.78   14.66
  -5   6   2  147.22   11.13
   5   6  -2  156.31   10.64
  -5   6   2  168.08   13.19
   5   6  -2  133.26   11.21
   5   6  -2  141.28    9.30
  -5  -6   1  141.83   14.63
  -5   6   1  137.86   10.41
   5   6  -1  139.50   11.79
   5   6  -1  137.63    9.40
   5   6  -1  137.29   10.14
   5  -6   0  131.38   10.83
  -5  -6   0  132.31   14.90
  -5   6   0  115.78    9.46
   5   6   0  123.67   11.65
   5   6   0  144.59    9.86
   5   6   0  139.84   10.29
   5   6   1   28.67    5.05
  -5   6  -1   25.05    4.48
   5  -6   1   34.46    5.67
   5   6   1   27.31    7.18
  -5  -6  -1   32.24   10.86
  -5   6  -1   45.90    7.41
   5   6   1   25.15    4.96
  -5  -6  -2   15.36   10.23
   5   6   2   18.66    6.74
   5   6   2   12.26    4.11
  -5  -6  -2    4.58    3.30
   5  -6   2   14.35    4.49
  -5   6  -2    6.69    6.40
   5   6   2   19.67    4.74
  -5  -6  -3  847.54   44.05
   5  -6   3  828.62   36.88
   5   6   3  805.29   40.40
  -5  -6  -3  848.25   37.31
  -5   6  -3  854.30   40.23
   5   6   3  854.97   37.53
   5   6   3  843.53   37.40
   5  -6   4    2.86    3.64
  -5   6  -4   -1.47    9.31
   5   6   4    7.55    6.87
   5   6   4    8.22    3.68
  -5  -6  -4    8.03    3.92
   5  -6   5  184.44   13.20
  -5  -6  -5  184.65   13.36
   5   6   5  143.35   15.02
  -5   6  -5  160.69   17.40
   5   6   5  173.34   12.79
   5   6   6   26.74    9.50
  -5  -6  -6   12.23    4.62
  -5   6  -6   14.80   11.64
   5  -6   6   16.97    5.74
   5   6   6   20.35    5.02
   5   6   7   54.15   11.09
  -5  -6  -7   49.18    7.53
   5  -6   7   34.98    7.52
  -5   6  -7   44.62   14.49
   5   6   7   50.14    7.38
   5   6   8   87.39   13.36
  -5  -6  -8   91.38    9.94
  -5   6  -8  103.89   18.65
   5  -6   8   78.90   10.52
   5   6   8   88.89   10.18
   5  -6   9    1.52    6.16
   5   6   9   10.53    5.14
   5   6   9    7.56    8.34
   5  -6  10   46.32    9.52
   5   6  10   48.01    8.15
   5   6  10   37.23   10.59
   5  -6  11  113.25   13.71
   5   6  11  117.34   11.97
   5   6  11  100.87   13.99
   5  -6  12    3.88    7.40
   5   6  12    2.98    4.92
   5   6  12   -2.08    7.77
   5  -6  13    6.23    7.76
   5   6  13    1.55    4.51
   5   6  13   -2.13    8.94
   5  -6  14    2.22    7.93
   5   6  14   14.46    6.02
   5  -6  15    7.04    8.78
   5   6  15   -3.31    5.78
   5   6  15   -4.45    8.84
   5  -6  16    2.48    8.85
   5   6  16    5.11    5.48
   5   6  16   -4.52    9.65
   5  -6  17   13.00   10.72
   5   6  17    3.51    5.30
   5   6  17   13.76    9.29
   5  -6  18    8.13    9.93
   5   6  18   30.14   10.40
   5  -6  19   50.64   13.98
   5   6  19   51.36   12.47
   5  -6  20   14.53   10.89
   5   6  20   30.49   12.15
  -5   7  20   33.47    8.89
  -5   7  20   29.85   17.19
  -5   7  19   58.29   11.01
  -5   7  19   62.99   18.39
  -5   7  18   15.30    7.01
  -5   7  18    6.60   14.34
  -5   7  17   16.78    7.72
  -5   7  17   36.07   15.77
  -5   7  16   11.72    8.17
  -5   7  16   -1.82    6.35
  -5   7  16    3.25   14.77
  -5   7  15   79.59   13.50
  -5   7  15   80.15   11.18
  -5   7  14   76.92   12.68
  -5   7  14   81.81   11.14
  -5   7  14   95.77   20.26
  -5   7  13  103.91   14.63
  -5   7  13  132.82   13.78
  -5   7  12  102.82   13.04
  -5   7  12  123.29   12.95
  -5   7  12   98.21   13.50
  -5   7  11   72.01    9.89
  -5   7  11   37.80    8.87
  -5   7  11   51.43   10.50
  -5   7  10   19.51    6.36
  -5   7  10   13.39    6.86
  -5   7   9   97.75   11.46
  -5   7   9   79.76   11.44
  -5   7   8   46.03    8.16
  -5   7   8   71.04   11.32
  -5   7   7  166.32   14.39
  -5   7   7  152.39   15.08
  -5   7   6  146.81   13.63
  -5   7   6  131.43   13.16
  -5   7   5   85.53   10.55
  -5   7   5   88.49   10.21
   5   7  -4  220.00   13.61
  -5   7   4  193.48   14.69
   5   7  -3  223.08   14.59
  -5   7   3  251.99   17.88
   5   7  -3  231.06   15.54
  -5   7   3  244.52   16.12
   5   7  -2  263.17   16.19
  -5   7   2  292.68   19.38
   5   7  -2  273.88   17.56
  -5   7   2  271.75   16.84
   5   7  -1  446.66   23.25
  -5   7   1  456.29   26.14
   5   7  -1  446.19   24.60
  -5   7   1  444.41   23.00
   5   7   0   70.51    7.92
  -5   7   0   45.15    6.25
   5   7   0   65.28    9.85
   5   7   1   45.22    6.88
   5   7   1   37.89    8.39
  -5   7  -1   43.38    5.97
   5   7   2  119.81   13.43
  -5   7  -2  158.68   10.80
   5   7   2  123.23   10.92
   5   7   2  133.75   11.39
   5   7   3   77.95   11.48
   5   7   3   85.40    9.22
   5   7   3   53.71    7.68
   5   7   4    8.38    7.95
   5   7   4    9.55    5.44
  -5  -7  -4   11.34    4.85
   5   7   4    7.09    4.23
   5   7   5   10.58    8.26
   5   7   5    9.83    4.80
  -5  -7  -5    9.44    4.88
   5   7   6   -1.84    8.51
   5   7   6    5.09    4.55
  -5  -7  -6   11.07    5.08
   5   7   7  384.69   22.79
   5   7   7  378.58   26.44
   5   7   8  274.88   19.01
   5   7   8  313.24   23.64
   5   7   9   77.50    9.95
   5   7   9   82.66   13.18
   5   7  10  257.13   18.07
   5   7  10  214.85   20.67
   5   7  11   88.66   10.90
   5   7  11   94.20   14.33
   5   7  12  128.40   13.49
   5   7  12  134.67   17.56
   5   7  13  115.69   13.08
   5   7  13  119.66   16.36
   5   7  14   17.06    6.67
   5   7  14    9.39    9.16
   5   7  15   14.09    6.60
   5   7  15    9.55   10.37
   5   7  16   10.83    6.76
   5   7  16    4.86    8.68
   5   7  17   31.39    8.32
   5   7  17   17.23   10.54
   5   7  18    1.89    5.50
   5   7  18    2.48    9.08
  -5   8  18    2.02    6.29
  -5   8  18  -10.32   15.17
  -5   8  17    5.96    6.19
  -5   8  17   20.49   16.41
  -5   8  16   -1.94    5.66
  -5   8  16    2.48    6.96
  -5   8  16    3.38   13.42
  -5   8  15    7.24    7.98
  -5   8  15    3.81    5.56
  -5   8  15   -3.33   13.99
  -5   8  14    4.68    7.31
  -5   8  14   11.25    6.70
  -5   8  14    3.28   13.79
  -5   8  13   93.93   19.75
  -5   8  13   65.81   12.18
  -5   8  13   86.70   11.92
  -5   8  12   12.78   14.52
  -5   8  12   -4.40    6.19
  -5   8  12    3.63    6.01
  -5   8  11   -2.14    7.08
  -5   8  11    1.79    5.21
  -5   8  10   18.71    8.87
  -5   8  10   -3.60    5.25
  -5   8   9   99.20   13.45
  -5   8   9  115.73   13.08
  -5   8   8   25.73    8.17
  -5   8   8    5.11    4.98
  -5   8   7  141.73   14.15
  -5   8   6   14.81    5.61
  -5   8   5   -3.27    5.10
  -5   8   4   21.06    6.35
  -5   8   3   16.18    6.20
   5   8  -2   -2.27    4.33
  -5   8   2   -1.62    6.06
   5   8  -1   86.13   10.80
  -5   8   1   87.73   11.22
   5   8  -1   81.37    9.40
   5   8   0   18.90    7.36
  -5   8   0   13.01    6.10
   5   8   0   10.82    5.06
   5   8   1  345.85   21.02
   5   8   1  334.36   22.76
   5   8   2    4.97    7.31
   5   8   2   12.86    5.12
   5   8   3  229.28   16.59
   5   8   3  250.57   19.93
   5   8   4   79.07   12.29
   5   8   4   76.10    9.52
   5   8   5   -3.86    7.67
   5   8   5    1.37    4.00
   5   8   6   52.23    8.31
   5   8   6   60.31   11.67
   5   8   7    2.93    4.70
   5   8   7   -2.09    8.14
   5   8   8   15.08    6.01
   5   8   8    8.64    8.92
   5   8   9  212.49   16.87
   5   8   9  176.23   19.10
   5   8  10    6.48    5.65
   5   8  10   11.46    9.95
   5   8  11    8.37    5.84
   5   8  11    9.41    9.35
   5   8  12    6.87    6.56
   5   8  12    4.81    8.79
   5   8  13  173.04   16.31
   5   8  13  186.83   20.42
   5   8  14    3.62    5.47
   5   8  14    5.00   10.13
   5   8  15  202.55   18.10
   5   8  15  216.44   22.22
   5   8  16    3.81    5.94
   5   8  16    2.58   10.05
   5   8  17   77.61   11.96
   5   8  17   88.55   15.98
  -5   9  16    2.06    5.78
  -5   9  16    3.47   14.56
  -5   9  15   40.60    9.59
  -5   9  15   30.57   10.21
  -5   9  15   58.06   19.06
  -5   9  14   75.82   11.68
  -5   9  14   62.08   12.92
  -5   9  14   63.82   17.92
  -5   9  13   26.38   15.86
  -5   9  13   21.76    8.67
  -5   9  13   21.72    7.73
  -5   9  12   19.43   14.94
  -5   9  12   14.14    8.01
  -5   9  12    7.82    6.48
  -5   9  11  152.49   22.59
  -5   9  11  142.65   16.83
  -5   9  11  146.12   15.58
  -5   9  10   34.31   15.05
  -5   9  10   40.40   11.01
  -5   9  10   40.79    9.19
  -5   9   9   83.38   13.17
  -5   9   9   92.85   12.45
  -5   9   8   34.37   10.12
  -5   9   8   33.79    8.49
  -5   9   7    3.68    4.54
  -5   9   6    1.82    4.91
  -5   9   5  148.04   15.12
  -5   9   4   52.14    9.58
  -5   9   3   44.81    8.75
  -5   9   2   -1.79    5.22
  -5   9   1   59.05   10.08
  -5   9   0   59.02    9.78
   5   9   1  127.61   14.08
   5   9   1  131.97   12.95
  -5   9  -1  169.85   15.73
   5   9   2    7.22    7.96
   5   9   2    1.44    4.78
   5   9   3   -3.80    7.69
   5   9   3   -1.46    4.40
   5   9   4   39.90   11.02
   5   9   4   14.82    5.21
   5   9   5   24.98   10.02
   5   9   5   16.75    6.09
   5   9   6   23.35    6.35
   5   9   6   19.48    9.86
   5   9   7    3.20    4.67
   5   9   7   11.20    9.24
   5   9   8   29.71    8.14
   5   9   8   53.19   12.29
   5   9   9   21.98    7.14
   5   9   9   21.42   10.84
   5   9  10   27.84    7.71
   5   9  10   14.67    9.94
   5   9  11  175.48   16.50
   5   9  11  170.29   19.87
   5   9  12    3.68    5.73
   5   9  12    2.55    9.33
   5   9  13  148.58   15.93
   5   9  13  156.24   19.66
   5   9  14   17.28    6.90
   5   9  14   34.33   12.37
   5   9  15   -1.95    6.46
  -5  10  13  137.00   23.25
  -5  10  13  117.73   16.65
  -5  10  13  121.90   15.09
  -5  10  12   13.09   13.50
  -5  10  12   -2.50    7.81
  -5  10  12    6.28    6.10
  -5  10  11    9.61   13.46
  -5  10  11   36.79   11.18
  -5  10  11   22.87    8.15
  -5  10  10   75.14   18.00
  -5  10  10   28.82    9.50
  -5  10  10   58.71   10.84
  -5  10   9   21.41   13.91
  -5  10   9   25.87    9.19
  -5  10   9   12.57    6.96
  -5  10   8   11.95   13.78
  -5  10   8    6.92    8.81
  -5  10   8   -2.05    5.53
  -5  10   7  -11.68   12.05
  -5  10   7   20.11    8.15
  -5  10   6  117.03   14.67
  -5  10   5   53.38   10.04
  -5  10   4    1.97    5.94
  -5  10   3   13.69    6.83
  -5  10   2    1.96    5.91
  -5  10   1   13.64    7.14
  -5  10   0   -5.83    7.26
  -5  10  -1    5.81    6.05
  -5  10  -2   21.26    7.26
   5  10   3  101.73   14.54
   5  10   4   -6.40    7.97
   5  10   4   -3.25    4.75
   5  10   5  166.48   18.43
   5  10   5  132.99   13.60
   5  10   6    1.70    5.48
   5  10   6   -2.30    8.96
   5  10   7    3.46    4.87
   5  10   7   19.08    9.84
   5  10   8   30.17    7.98
   5  10   8    7.37    9.20
   5  10   9   92.73   12.23
   5  10   9   98.03   16.14
   5  10  10   13.03    6.82
   5  10  10   10.30    9.84
   5  10  11   89.57   12.20
   5  10  11   63.11   14.61
   5  10  12    1.95    6.44
   5  10  12    2.67   10.82
   5  10  13   -1.99    7.60
  -5  11  10   -2.54    8.17
  -5  11  10    9.43   12.97
  -5  11   9  113.53   19.64
  -5  11   9   92.24   15.07
  -5  11   9   63.51   12.07
  -5  11   8   -2.45    7.64
  -5  11   8   -4.43    6.45
  -5  11   7    8.75   13.26
  -5  11   7    2.41    7.28
  -5  11   7    2.17    5.86
  -5  11   6   14.20   13.67
  -5  11   6   23.65    8.07
  -5  11   5   19.35   12.56
  -5  11   5   -2.13    6.83
  -5  11   4   26.90   14.23
  -5  11   4   12.72    7.41
  -5  11   3   23.29    8.77
  -5  11   2   -4.20    6.35
  -5  11   1   88.07   12.82
  -5  11   0   60.27   11.65
  -5  11  -1  105.67   14.10
  -5  11  -2   22.69    7.75
  -5  11  -3  121.01   14.56
  -5  11  -4   16.31    6.95
   5  11   5    9.33    8.72
   5  11   6   12.05    9.02
   5  11   7  139.17   18.51
   5  11   8   26.48    7.99
   5  11   8   25.53   11.64
   5  11   9   17.38    7.70
   5  11   9   20.91   12.07
   5  11  10   -5.90    7.20
  -5  12   7   61.30   17.60
  -5  12   6   19.88    9.31
  -5  12   3    6.73    6.77
  -5  12   2   -2.23    8.17
  -5  12   1   57.50   11.35
  -5  12   0   15.40    8.06
  -5  12  -1    4.37    6.14
  -5  12  -2   78.13   12.27
  -5  12  -3    2.16    6.29
  -5  12  -4  111.20   14.48
   6   0 -23    7.55   12.13
  -6   0  23    4.67   18.56
   6   0 -22  127.85   21.75
  -6   0  22  190.68   29.64
  -6   0  21   -6.61   11.81
   6   0 -21   -3.52    9.88
  -6   0  20  167.74   22.28
   6   0 -20  165.32   22.76
  -6   0  19   -3.02   11.78
   6   0 -19   -6.45   10.05
  -6   0  18  215.73   23.35
   6   0 -18  180.84   22.33
  -6   0  17  -13.69   10.45
   6   0 -17    5.80    9.33
  -6   0  16  218.74   22.63
   6   0 -16  245.82   23.65
  -6   0  15   -4.83    9.42
   6   0 -15    2.56    8.70
   6   0 -14  288.00   21.54
  -6   0  14  260.36   23.47
   6   0 -14  293.70   24.32
  -6   0  13    2.11    8.37
   6   0 -13    4.43    7.53
   6   0 -13    6.70    6.66
   6   0 -12  185.99   11.24
   6   0 -12  143.15   16.30
   6   0 -12  161.84   16.01
  -6   0  12  167.00   17.07
   6   0 -12  194.59   15.97
   6   0 -11   -1.30    2.42
  -6   0  11   -1.22    2.51
   6   0 -11   14.84    6.16
  -6   0  11   -1.78    5.36
   6   0 -11   -1.88    5.28
   6   0 -11    1.44    4.63
  -6   0  10  263.94   13.43
   6   0 -10  253.35   13.42
   6   0 -10  261.80   19.69
   6   0 -10  258.19   18.82
  -6   0  10  261.86   19.41
   6   0 -10  281.16   18.20
   6   0  -9   -1.49    1.89
  -6   0   9    3.13    3.05
  -6   0   9   -0.98    1.75
   6   0  -9    1.19    3.83
   6   0  -9   -1.55    4.52
   6   0  -9   -2.78    4.20
  -6   0   9    1.44    4.49
   6   0  -8  468.12   19.58
  -6   0   8  482.51   21.65
  -6   0   8  442.54   19.46
   6   0  -8  492.91   26.65
  -6   0   8  431.45   25.00
  -6   0   8  483.37   26.71
   6   0  -8  411.29   23.32
   6   0  -8  450.31   25.01
   6   0  -7   -3.37    4.29
   6   0  -7    1.10    1.64
  -6   0   7    1.10    1.69
  -6   0   7    0.62    2.63
   6   0  -7    0.95    3.40
   6   0  -7   -4.95    4.42
  -6   0   7   -1.27    3.95
  -6   0   7    1.13    3.62
   6   0  -6  840.25   32.80
  -6   0   6  854.58   34.72
  -6   0   6  859.49   32.83
   6   0  -6  847.91   38.51
  -6   0   6  825.37   39.37
   6   0  -6  902.03   38.39
  -6   0   6  923.68   38.52
  -6   0   6  876.90   38.99
   6   0  -6  883.30   37.10
  -6   0   5    3.34    3.36
   6   0  -5    0.85    2.30
  -6   0   5    0.26    1.18
   6   0  -5   -0.72    2.11
  -6   0   5   -0.95    2.46
  -6   0   5   -1.03    3.31
  -6   0   4   21.42    2.12
   6   0  -4   22.32    3.45
  -6   0   4   18.03    3.79
   6   0  -4   17.44    3.47
  -6   0   4   15.27    3.86
  -6   0   4   19.59    4.22
  -6   0   3   -1.42    2.59
   6   0  -3   -0.54    1.50
   6   0  -3   -0.65    1.44
  -6   0   3    0.83    1.93
   6   0  -3   -0.63    1.84
  -6   0   2 1475.88   60.25
   6   0  -2 1553.34   57.39
  -6   0   2 1463.13   58.20
   6   0  -2 1542.96   58.31
  -6   0   2 1526.41   59.22
  -6   0   1   -0.78    2.65
  -6   0   1    0.55    1.28
  -6   0   1   -1.32    1.92
  -6   0   1   -1.19    1.68
   6   0  -1    0.59    1.46
  -6   0   0   89.63    6.63
   6   0   0   79.13    7.85
  -6   0   0  100.19    7.93
  -6   0  -1   -0.66    2.52
  -6   0  -1   -1.26    2.73
  -6   0  -1    0.55    1.77
   6   0   1   -0.84    2.79
  -6   0  -2 4362.63  155.33
  -6   0  -2 4205.65  155.35
   6   0   2 4248.02  156.32
  -6   0  -3    1.21    2.46
  -6   0  -3   -1.46    3.41
   6   0   3   -1.47    2.49
   6   0   3   -0.76    2.66
  -6   0  -3    1.52    3.24
  -6   0  -4   30.04    4.50
   6   0   4   51.54    5.73
  -6   0  -4   33.31    5.59
   6   0   4   26.38    4.35
  -6   0  -4   32.94    5.59
  -6   0  -5   -1.43    2.78
  -6   0  -5    6.18    4.47
   6   0   5    0.88    2.57
   6   0   5   -1.71    3.58
  -6   0  -5   -0.99    3.78
  -6   0  -6    7.05    3.61
  -6   0  -6    1.17    5.67
  -6   0  -6    2.42    4.72
   6   0   6    0.98    3.67
   6   0   6    1.90    3.15
  -6   0  -7    1.35    6.57
  -6   0  -7    0.86    3.92
   6   0   7   -3.32    3.85
  -6   0  -7   -1.41    6.51
   6   0   7   -1.06    3.52
  -6   0  -8  152.15   11.27
   6   0   8  128.68    9.70
  -6   0  -8  132.82   13.85
  -6   0  -8   97.58   13.48
   6   0   8  101.01   10.87
   6   0   8  142.53   11.92
  -6   0  -9   -1.78    3.10
   6   0   9   -0.84    3.21
  -6   0  -9    1.76    9.11
  -6   0  -9    2.07    4.77
  -6   0  -9   -5.53   10.36
   6   0   9   -5.45    5.52
   6   0   9   -2.64    4.59
   6   0  10   24.74    5.11
   6   0  10   31.90    7.81
  -6   0 -10   31.91   13.04
  -6   0 -10   28.41    7.53
   6   0  10   34.49    7.90
  -6   0 -10   36.97   12.34
  -6   0 -10   24.94    4.94
  -6   0 -11   -1.03    3.68
   6   0  11   -1.85    4.21
   6   0  11   -7.90    6.52
  -6   0 -11    8.96   11.84
  -6   0 -11   -8.65    8.46
   6   0  11    9.82    7.54
  -6   0 -11    4.53   13.44
  -6   0 -11   -4.89    7.30
  -6   0 -12   65.89    8.31
   6   0  12   65.63    7.87
   6   0  12   75.42   11.49
  -6   0 -12   70.84   11.45
  -6   0 -12   81.20   17.83
   6   0  12   79.76   11.95
  -6   0 -12   41.58   10.19
  -6   0 -13    1.16    4.16
   6   0  13    5.73    7.73
  -6   0 -13   15.80   14.51
  -6   0 -13   11.00    9.26
   6   0  13    1.00    4.89
   6   0  14  196.06   19.42
   6   0  14  218.88   19.39
  -6   0 -14  178.47   19.42
   6   0  15    2.10    7.50
   6   0  15   -4.34    8.11
   6   0  16  570.73   35.57
   6   0  16  568.31   35.78
   6   0  17    2.41    8.81
   6   0  17   11.68    9.29
   6   0  18   70.53   14.11
   6   0  18   73.37   13.71
   6   0  19   -2.62   10.23
   6   0  19  -10.16   12.05
   6   0  20   46.24   13.14
   6   0  20   34.28   11.71
   6   0  21   -5.61   10.92
   6   0  21   -2.73   10.42
   6   0  22   37.46   12.41
   6   0  22   58.82   13.73
  -6   1  24    9.40   19.73
  -6   1  23   23.02   20.30
  -6  -1  23    4.70   19.39
  -6   1  23    7.05   11.98
   6   1 -23    7.56   11.78
   6  -1 -23   -3.76   11.35
  -6  -1  22   -4.58   18.54
  -6   1  22   -4.47   18.45
   6   1 -22   -3.66   11.04
   6  -1 -22   10.92   10.98
  -6   1  22    3.40   10.60
   6  -1 -21   35.05   14.55
   6   1 -21   70.41   16.32
  -6   1  21   49.07   14.74
  -6  -1  21   35.38   18.31
   6   1 -20  151.90   21.01
   6  -1 -20  127.81   19.93
  -6   1  20  103.43   18.80
   6   1 -19   41.91   14.69
   6  -1 -19   32.12   11.52
  -6  -1  19   30.62   12.45
  -6   1  19   18.00   12.19
   6  -1 -18  137.57   20.35
   6   1 -18  180.75   21.87
  -6  -1  18  160.27   20.62
  -6   1  18  134.06   19.08
   6   1 -17    5.80    9.32
   6  -1 -17   11.57   10.08
  -6   1  17   -5.40    9.65
  -6  -1  17   22.13   10.99
   6   1 -16   13.64    9.76
   6  -1 -16   27.25   11.25
  -6  -1  16    7.84   10.40
  -6   1  16   12.74   10.14
   6  -1 -15    7.66    9.95
   6   1 -15    2.56    8.22
  -6  -1  15   -2.46    9.60
  -6   1  15    4.78   10.20
   6   1 -14   35.80    8.66
   6   1 -14   33.35   10.05
   6  -1 -14   21.44    8.97
   6  -1 -14   35.47    8.70
  -6   1  14   32.23    5.70
  -6  -1  14   32.28   10.68
   6   1 -14   23.89    7.62
  -6   1  14   24.54    9.89
   6   1 -13   20.16    7.53
   6  -1 -13   14.94    6.85
   6  -1 -13    4.42    6.90
   6   1 -13   11.04    8.61
  -6   1  13   11.25    4.00
  -6  -1  13    8.59    9.01
   6   1 -13    6.01    5.63
  -6   1  13    6.19    7.01
   6  -1 -13    5.95    3.26
   6  -1 -12   -0.79    2.87
  -6   1  12   -0.80    2.93
   6   1 -12   -2.57    4.11
   6   1 -12    2.04    6.74
   6   1 -12    6.25    5.71
   6  -1 -12    8.15    6.93
   6  -1 -12   -1.55    4.82
   6   1 -12   15.94    7.69
   6  -1 -12   10.64    6.18
  -6   1  12   -1.89    6.60
  -6  -1  12   -1.99    7.90
   6   1 -12   -4.23    5.49
   6  -1 -11  192.27   11.94
  -6   1  11  184.39   13.64
   6   1 -11  187.81   10.75
  -6   1  11  178.90   11.91
   6  -1 -11  187.00   17.26
   6   1 -11  190.77   17.26
   6   1 -11  205.31   16.91
   6  -1 -11  187.27   16.17
  -6  -1  11  192.47   17.56
  -6   1  11  203.11   17.70
   6   1 -11  184.47   15.31
   6   1 -11  218.92   15.77
   6  -1 -11  219.18   16.37
   6  -1 -10  310.52   16.06
  -6   1  10  304.93   18.25
   6   1 -10  326.30   15.00
  -6   1  10  337.15   16.52
   6  -1 -10  350.57   22.95
   6   1 -10  294.93   21.56
   6   1 -10  313.14   20.89
   6  -1 -10  306.68   20.90
  -6  -1  10  313.98   22.47
   6   1 -10  295.98   19.67
  -6   1  10  326.92   21.67
   6  -1 -10  296.79   19.77
   6   1  -9   13.66    2.55
   6  -1  -9   11.47    2.82
  -6   1   9   15.63    4.56
  -6   1   9   14.81    3.11
   6   1  -9   23.18    6.39
   6   1  -9   17.87    5.11
   6  -1  -9    4.62    4.82
   6  -1  -9   18.96    5.33
   6   1  -9   11.08    6.12
   6  -1  -9    6.90    4.95
  -6   1   9   17.96    6.87
  -6   1   9    6.99    4.38
  -6  -1   9   21.10    6.45
   6  -1  -8  331.23   15.86
  -6   1   8  337.72   17.99
   6   1  -8  334.07   14.39
  -6   1   8  340.00   16.14
   6  -1  -8  339.25   21.04
   6   1  -8  321.07   20.77
   6   1  -8  344.05   20.60
   6  -1  -8  317.73   20.10
  -6  -1   8  282.21   19.80
  -6   1   8  350.78   20.75
   6   1  -8  325.01   19.09
   6  -1  -8  353.29   19.62
  -6   1   8  317.88   21.30
   6  -1  -7  385.62   17.69
  -6   1   7  398.27   17.91
  -6   1   7  392.15   19.69
   6   1  -7  398.19   15.97
   6   1  -7  413.00   22.84
   6  -1  -7  405.50   22.65
   6   1  -7  396.74   20.76
  -6   1   7  377.73   22.48
   6  -1  -7  374.17   20.60
  -6  -1   7  379.15   22.08
  -6   1   7  368.52   21.43
  -6  -1   7  411.07   22.98
   6   1  -7  406.59   22.21
   6  -1  -7  385.69   21.76
   6   1  -6    2.96    2.98
   6  -1  -6    9.71    3.63
  -6   1   6    1.96    1.75
   6  -1  -6    2.78    1.91
   6   1  -6    3.22    1.09
  -6  -1   6    5.88    2.12
  -6   1   6    5.67    4.24
  -6  -1   6    4.83    4.41
   6  -1  -6    5.93    3.03
   6   1  -6    4.93    3.14
  -6   1   6    4.84    4.81
   6  -1  -6    1.07    3.63
   6   1  -6    1.08    3.28
  -6  -1   6    8.20    4.00
  -6  -1   6    3.27    3.90
  -6   1   5   79.30    5.58
  -6  -1   5   67.25    4.74
  -6  -1   5   94.58    9.09
   6   1  -5   74.48    6.77
   6  -1  -5   71.13    6.62
  -6   1   5   83.00    8.56
  -6  -1   5   81.08    7.78
  -6  -1   5   80.57    7.67
  -6   1   5   73.00    7.66
   6  -1  -5   80.19    7.33
  -6  -1   5   85.26    8.85
  -6   1   5   78.45    8.53
   6   1  -5   79.96    7.39
  -6  -1   4    7.41    2.80
  -6  -1   4   17.37    3.66
  -6  -1   4    8.10    3.24
  -6   1   4   11.22    3.45
   6  -1  -4   11.63    2.83
   6   1  -4   14.08    2.66
  -6   1   4    9.60    2.07
  -6   1   4   11.62    3.71
   6   1  -4   18.91    3.42
  -6  -1   4    8.69    3.39
   6  -1  -4   10.72    2.76
  -6   1   4    9.59    3.45
   6   1  -3  227.94   11.52
  -6   1   3  241.07   13.40
   6  -1  -3  213.15   11.90
  -6  -1   3  229.90   12.71
  -6  -1   3  227.61   13.57
  -6   1   3  208.64   13.13
   6   1  -3  229.39   12.45
   6  -1  -3  237.69   12.55
   6  -1  -3  218.36   12.33
   6   1  -3  198.80   11.99
  -6  -1   2 1185.08   44.32
  -6   1   2 1365.27   51.15
  -6   1   2 1319.75   49.35
   6   1  -2 1289.64   47.29
  -6  -1   2 1265.02   48.31
  -6  -1   2 1274.02   49.65
  -6   1   2 1235.48   49.46
   6   1  -2 1241.17   48.55
   6  -1  -2 1281.27   48.68
  -6  -1   1   26.09    2.19
  -6   1   1   29.66    3.77
  -6  -1   1   29.51    3.39
  -6   1   1   26.63    4.42
  -6  -1   1   23.94    4.41
  -6  -1   1   29.54    3.84
   6   1  -1   28.33    3.65
   6  -1  -1   26.92    3.58
  -6   1   1   17.90    3.26
  -6  -1   1   31.94    4.12
  -6   1   1   27.65    3.88
   6  -1   0  533.17   24.54
  -6  -1   0  491.20   22.61
   6   1   0  472.44   23.68
  -6   1   0  508.12   22.78
  -6  -1   0  500.16   21.74
  -6  -1   0  482.23   19.18
  -6  -1   0  448.31   21.20
  -6   1   0  474.01   21.44
   6   1   1 3177.98  117.87
  -6   1  -1 3233.63  116.42
   6  -1   1 3143.63  117.65
  -6  -1  -1 3212.05  116.09
  -6  -1  -1 3068.74  115.33
  -6  -1  -1 3172.14  113.18
  -6   1  -1 3194.31  115.83
  -6  -1  -1 3106.36  114.98
  -6   1  -1 3150.63  115.09
  -6  -1  -1 3073.96  115.71
   6   1   2  161.81   10.99
  -6   1  -2  180.03   11.08
   6  -1   2  186.16   11.63
  -6  -1  -2  182.24   10.72
  -6  -1  -2  160.62    8.80
  -6  -1  -2  151.90   10.33
  -6   1  -2  167.54   10.56
  -6  -1  -2  159.55   10.32
  -6  -1  -3    4.83    1.92
  -6  -1  -3    4.25    3.49
   6   1   3    3.74    2.67
   6  -1   3   -0.80    2.41
  -6  -1  -3    2.86    3.34
  -6   1  -3    2.44    3.23
  -6   1  -3    1.46    2.67
  -6  -1  -3    2.21    2.70
   6  -1   3    0.74    2.16
   6   1   3    4.41    2.22
  -6  -1  -4  402.84   18.86
   6   1   4  422.30   20.50
   6  -1   4  439.56   21.15
   6   1   4  444.50   20.36
  -6  -1  -4  373.02   19.97
  -6  -1  -4  422.78   20.94
  -6   1  -4  389.16   21.42
  -6  -1  -4  419.77   21.10
   6  -1   4  404.49   20.20
   6   1   4  457.78   20.84
  -6   1  -4  372.90   20.39
  -6  -1  -5  588.90   25.92
   6   1   5  587.62   27.32
   6  -1   5  602.40   28.14
  -6   1  -5  620.64   26.12
   6   1   5  547.63   26.53
  -6  -1  -5  591.78   27.59
  -6  -1  -5  616.67   28.77
  -6   1  -5  584.15   29.30
   6   1   5  607.33   27.68
   6  -1   5  629.62   27.88
  -6   1  -5  582.10   28.40
  -6  -1  -5  571.60   28.37
  -6  -1  -6  289.03   16.11
   6   1   6  355.69   18.39
   6  -1   6  319.58   18.58
  -6  -1  -6  304.57   19.32
  -6   1  -6  316.75   20.30
   6  -1   6  313.87   17.93
  -6   1  -6  324.80   19.76
  -6  -1  -6  311.26   19.63
   6   1   6  314.38   18.02
  -6  -1  -6  339.14   18.53
   6   1   6  304.91   16.94
  -6   1  -6  335.63   16.62
  -6  -1  -7  502.83   23.55
   6   1   7  500.35   24.05
  -6   1  -7  458.58   22.92
  -6  -1  -7  516.71   25.55
   6   1   7  507.99   25.26
   6  -1   7  480.77   26.04
  -6  -1  -7  505.62   27.92
  -6   1  -7  459.38   28.19
   6  -1   7  514.20   25.57
   6   1   7  498.86   25.36
  -6   1  -7  470.84   27.11
  -6  -1  -7  509.22   27.92
  -6  -1  -8   58.81    6.57
   6   1   8   63.36    7.18
  -6  -1  -8   51.56   10.86
  -6   1  -8   40.18    9.38
  -6   1  -8   58.88    6.76
  -6  -1  -8   79.72    9.10
  -6   1  -8   55.78   11.35
  -6  -1  -8   48.89   10.47
   6   1   8   47.61    7.61
   6  -1   8   37.46    7.59
   6   1   8   73.54    8.80
   6  -1   8   55.52    7.68
  -6  -1  -9   14.78    4.28
   6   1   9   12.63    4.24
  -6  -1  -9   41.01   11.38
  -6   1  -9   21.18   10.12
  -6   1  -9   12.38    4.75
  -6  -1  -9    3.68    6.84
  -6   1  -9   -1.91    9.52
  -6  -1  -9   16.12    9.78
   6   1   9   16.79    5.97
   6  -1   9    2.85    5.46
   6   1   9   15.79    5.73
   6  -1   9   18.34    5.70
  -6  -1 -10    1.00    3.73
   6   1  10    7.15    4.43
   6  -1  10    8.64    5.72
  -6  -1 -10   10.08   11.22
  -6   1 -10    5.99   11.33
   6   1  10   11.57    6.28
  -6   1 -10    8.71    5.01
  -6  -1 -10    3.98    7.60
  -6  -1 -10   -2.01   10.73
   6  -1  10    9.36    5.83
  -6   1 -10   10.58   11.06
   6   1  10   -1.43    5.09
  -6  -1 -10    1.38    6.73
  -6  -1 -11  108.78   10.15
   6   1  11   86.64    9.44
   6  -1  11   86.51   11.63
   6   1  11  102.75   12.07
  -6  -1 -11  104.09   19.27
  -6   1 -11   91.97   17.08
  -6   1 -11   80.35    9.84
  -6  -1 -11   81.21   12.04
   6  -1  11   73.17   11.41
   6   1  11   85.83   11.48
  -6   1 -11   90.73   17.60
  -6  -1 -11  113.50   12.90
   6   1  12  627.03   34.16
   6  -1  12  574.55   33.61
  -6  -1 -12  666.89   30.94
  -6  -1 -12  594.58   33.28
  -6  -1 -12  597.81   33.39
  -6   1 -12  582.30   39.32
  -6  -1 -12  605.09   39.23
   6   1  12  648.72   34.59
   6  -1  12  605.17   34.70
   6   1  12  566.03   29.55
   6   1  13   -1.16    5.58
  -6   1 -13    3.94    9.07
  -6  -1 -13    1.70    8.70
  -6  -1 -13    3.23    9.58
   6   1  13   -7.32    8.43
   6  -1  13    1.97    7.99
  -6   1 -13   -5.39   15.57
  -6  -1 -13   25.74   16.66
   6   1  13   -1.84    7.86
   6  -1  13    3.67    7.00
   6   1  14  652.39   33.00
   6   1  14  621.59   37.44
   6  -1  14  706.36   39.74
   6   1  14  689.62   38.45
   6  -1  14  749.92   39.33
   6  -1  15  110.60   14.73
   6   1  15  115.11   15.47
   6   1  15  100.30   11.01
   6   1  15  102.25   14.55
   6  -1  15   96.17   14.62
   6   1  16    2.21    7.89
   6  -1  16   -7.08    8.82
   6   1  16   -4.42    7.51
   6  -1  16    2.21    8.45
   6   1  17   69.72   13.36
   6  -1  17   61.96   13.67
   6  -1  17  107.15   15.34
   6   1  17   88.63   14.58
   6   1  18   -2.43    8.48
   6  -1  18   10.37   10.10
   6  -1  18    2.43    8.04
   6   1  18   -2.43    8.47
   6   1  19   17.71   10.98
   6  -1  19   16.17   11.32
   6   1  19   10.14   10.45
   6  -1  19   -2.53   11.35
   6   1  20   36.75   11.69
   6  -1  20   50.30   13.53
   6   1  20   73.67   14.60
   6  -1  20   39.51   12.26
   6   1  21   56.89   13.83
   6  -1  21   57.58   14.33
   6  -1  21   46.28   12.35
   6   1  21   70.69   14.35
   6  -1  22    2.96   10.82
   6   1  22   -2.78   10.16
   6  -1  22    5.59    9.50
   6   1  22   16.74   10.88
   6   1  23   -2.84   10.63
  -6   2  24    4.59   19.28
  -6   2  23    4.50   18.25
  -6  -2  23   28.25   22.92
  -6   2  23   13.94   12.75
   6  -2 -23   11.17   11.97
   6   2 -23   15.07   12.81
  -6  -2  22   32.18   20.59
  -6   2  22   21.90   19.31
  -6   2  22   -3.37   10.82
   6  -2 -22   14.43   12.26
   6   2 -22    3.64   11.01
  -6  -2  21    4.45   19.01
   6   2 -21    7.02   10.94
   6  -2 -21    6.95    9.76
  -6   2  21   -3.24    9.79
   6   2 -20   13.46   10.51
   6  -2 -20   20.03   11.65
  -6   2  20   21.79   13.08
   6  -2 -19    3.19   10.25
   6   2 -19    6.42   10.01
  -6   2  19    2.97   10.86
   6  -2 -18    9.10   10.57
   6   2 -18    3.05    8.89
  -6   2  18    8.48   10.09
   6   2 -17  129.62   18.61
   6  -2 -17  132.04   18.69
  -6   2  17  112.52   17.51
   6  -2 -16  248.72   24.00
   6   2 -16  227.50   23.47
  -6  -2  16  252.22   24.15
  -6   2  16  247.06   23.49
  -6   2  16  214.08   15.45
   6   2 -15   76.03   14.10
   6  -2 -15   53.21   12.32
  -6   2  15   58.47    7.74
  -6  -2  15   35.01   12.47
  -6   2  15   49.66   11.81
  -6   2  14  133.57   11.09
   6   2 -14  124.58   14.35
   6   2 -14  115.58   15.67
   6  -2 -14  122.83   16.53
   6  -2 -14  117.69   10.45
   6  -2 -14  132.70   15.18
  -6  -2  14  142.92   17.78
   6   2 -14  107.70   12.95
  -6   2  14  149.34   16.82
  -6   2  13   29.56    5.88
   6   2 -13   44.89    9.34
   6  -2 -13   37.40    8.50
   6   2 -13   37.15   10.44
   6  -2 -13   32.82   10.17
   6  -2 -13   35.82    5.78
   6   2 -13   33.84    9.35
   6  -2 -13   52.77   10.15
  -6   2  13   40.49    9.55
  -6  -2  13   32.83   11.38
   6   2 -13   29.76    7.82
  -6   2  12  575.74   30.10
  -6   2  12  599.99   27.72
   6  -2 -12  538.33   33.74
   6   2 -12  571.88   34.37
   6  -2 -12  526.16   26.75
   6   2 -12  642.61   33.75
   6  -2 -12  517.27   31.75
   6   2 -12  598.92   31.90
  -6   2  12  628.24   34.40
   6   2 -12  643.00   32.21
   6  -2 -12  577.59   31.37
  -6  -2  12  531.32   34.03
  -6   2  11   17.26    5.46
  -6   2  11   17.31    4.35
   6  -2 -11   19.57    6.18
   6   2 -11    9.96    5.56
   6   2 -11    9.23    6.61
   6  -2 -11   14.76    6.45
   6  -2 -11   10.82    3.92
   6   2 -11   30.79    8.29
   6  -2 -11   19.46    6.82
  -6   2  11   11.84    6.34
   6   2 -11    6.86    5.26
  -6  -2  11    5.63    7.03
   6   2 -10  806.98   32.60
  -6   2  10  835.55   38.03
   6   2 -10  831.16   34.09
  -6   2  10  829.18   35.61
   6   2 -10  843.36   41.78
   6  -2 -10  838.82   41.99
   6  -2 -10  861.99   35.68
   6  -2 -10  846.26   40.69
   6   2 -10  726.72   39.46
  -6   2  10  828.60   40.75
   6  -2 -10  837.01   39.16
   6   2 -10  863.17   39.42
  -6  -2  10  854.84   42.61
   6   2 -10  849.39   39.42
  -6   2  10  799.72   42.37
   6   2  -9  139.36    7.53
  -6   2   9  142.45   11.42
   6   2  -9  142.77    8.60
  -6   2   9  130.96    9.43
   6  -2  -9  143.28   13.26
   6   2  -9  108.10   12.04
   6  -2  -9  142.70    9.66
   6   2  -9  137.80   12.88
   6  -2  -9  148.70   13.04
   6  -2  -9  139.64   11.85
  -6  -2   9  163.90   14.56
   6   2  -9  121.47   11.43
  -6   2   9  119.29   11.85
   6   2  -9  137.37   11.85
  -6   2   9  103.61   12.84
  -6   2   8   97.11    8.97
  -6   2   8   85.99    7.43
   6   2  -8   93.42    5.33
   6  -2  -8   95.68   10.23
   6   2  -8   71.16    9.28
   6  -2  -8   92.02    7.46
   6   2  -8   93.90    9.99
   6  -2  -8   94.98    9.77
  -6   2   8   80.62   10.29
   6   2  -8   96.12    9.21
   6  -2  -8   95.68    9.20
   6   2  -8   71.01    8.45
  -6  -2   8   94.26   11.03
  -6   2   7   94.14    7.79
   6   2  -7  114.69    5.55
   6  -2  -7   90.35    9.75
   6  -2  -7   99.87    9.17
   6   2  -7  113.17   10.89
   6  -2  -7  106.79    7.96
   6   2  -7   96.05    9.63
   6  -2  -7  116.40   10.12
  -6  -2   7  110.26   10.96
  -6   2   7  114.40   11.04
   6   2  -7  110.62    9.62
   6   2  -7  123.05    9.84
   6   2  -6  551.06   20.45
  -6   2   6  567.95   24.68
  -6  -2   6  527.47   27.47
  -6   2   6  554.89   28.28
   6   2  -6  568.62   25.78
  -6  -2   6  558.10   27.56
   6   2  -6  550.30   26.78
   6  -2  -6  557.03   26.62
   6   2  -6  614.80   28.10
  -6   2   6  538.00   28.54
   6  -2  -6  521.50   25.61
  -6  -2   6  532.23   28.33
  -6   2   5    1.84    1.97
  -6  -2   5   -1.88    3.60
  -6  -2   5    0.92    3.51
  -6  -2   5   -1.14    3.78
  -6   2   5    3.43    4.28
   6   2  -5   -0.83    2.75
   6  -2  -5    0.81    2.36
  -6   2   5   -3.09    3.59
   6  -2  -5   -0.75    2.34
  -6   2   5    2.12    3.88
  -6  -2   5    2.12    4.05
   6   2  -5   -0.67    2.45
  -6  -2   4    1.99    2.23
  -6   2   4    7.72    2.36
  -6  -2   4    3.68    3.36
  -6   2   4    1.82    2.36
   6  -2  -4    6.06    2.47
  -6  -2   4    4.63    2.55
  -6   2   4    1.82    3.33
   6   2  -4    5.49    1.97
  -6  -2   4    4.73    2.95
   6   2  -4    6.40    2.60
   6  -2  -4    9.71    2.97
  -6  -2   4    3.95    3.18
  -6   2   4    0.98    2.75
  -6  -2   3  356.48   17.75
  -6  -2   3  382.09   17.89
  -6  -2   3  365.32   16.91
  -6   2   3  365.68   18.80
   6   2  -3  336.60   16.02
  -6   2   3  378.84   18.94
   6  -2  -3  374.95   17.57
  -6  -2   3  371.13   18.90
  -6   2   3  362.73   19.37
   6  -2  -3  371.49   17.76
   6   2  -3  333.54   17.28
   6   2  -3  357.62   17.46
   6  -2  -3  390.82   17.82
  -6  -2   3  371.66   19.07
  -6   2   3  354.77   18.86
  -6  -2   2  125.13    7.89
  -6  -2   2  115.65    5.47
  -6  -2   2  127.45    8.30
   6   2  -2  137.24    7.25
  -6  -2   2  116.02    7.83
  -6   2   2  117.53    8.61
  -6   2   2  129.84    9.67
  -6  -2   2  125.62    8.94
  -6   2   2  122.13    8.84
   6  -2  -2  127.55    8.36
   6   2  -2  112.02    7.90
  -6  -2   1    3.01    2.78
  -6  -2   1    3.17    1.28
  -6  -2   1    1.81    1.46
  -6   2   1    1.33    1.56
  -6  -2   1    3.25    3.23
  -6   2   1    2.23    2.71
   6  -2  -1    2.91    3.20
  -6  -2   1    2.03    1.90
  -6   2   1    3.96    2.24
  -6   2   1    0.60    1.55
  -6  -2   1    3.68    1.85
   6   2  -1    1.18    1.38
   6  -2  -1    3.62    1.76
  -6  -2   0  167.84   10.77
  -6  -2   0  167.19    9.07
   6  -2   0  186.33   12.39
  -6  -2   0  159.59   10.78
  -6   2   0  179.95   11.09
  -6  -2   0  187.13    8.66
  -6   2   0  168.37    9.98
  -6  -2   0  160.12    9.86
  -6  -2  -1   -1.45    3.24
   6   2   1   -0.66    2.59
  -6  -2  -1    1.16    1.51
   6  -2   1    2.60    2.71
   6   2   1    0.87    2.70
  -6  -2  -1    0.62    2.62
  -6   2  -1    5.00    3.29
  -6  -2  -1   -0.63    2.71
  -6   2  -1   -0.62    2.63
  -6  -2  -1    2.23    1.62
  -6   2  -1   -0.56    1.81
   6   2   2 1228.57   50.11
  -6  -2  -2 1237.22   50.77
  -6  -2  -2 1267.20   48.16
   6   2   2 1318.33   51.42
   6  -2   2 1291.26   51.33
  -6  -2  -2 1238.32   49.49
  -6   2  -2 1328.90   51.08
  -6  -2  -2 1255.83   49.92
  -6   2  -2 1223.12   49.62
   6   2   3   63.28    6.71
  -6  -2  -3   62.38    5.48
  -6  -2  -3   67.59    7.50
   6  -2   3   85.41    7.50
   6   2   3   70.38    6.86
  -6  -2  -3   74.10    6.70
  -6   2  -3   77.19    7.70
  -6   2  -3   73.63    6.84
  -6  -2  -3   54.36    6.42
   6  -2   3   62.52    6.37
   6   2   3   66.48    6.43
  -6  -2  -4  644.09   30.59
   6   2   4  701.73   30.02
  -6  -2  -4  617.70   27.74
   6  -2   4  718.19   30.73
   6   2   4  667.43   29.20
  -6  -2  -4  631.87   29.37
  -6   2  -4  674.02   31.30
   6  -2   4  678.46   29.55
  -6  -2  -4  627.89   29.85
  -6   2  -4  629.41   29.66
   6   2   4  686.16   29.58
   6   2   5  640.81   28.14
  -6  -2  -5  587.18   28.84
  -6  -2  -5  588.50   26.16
   6   2   5  604.44   27.03
   6  -2   5  610.54   28.49
  -6  -2  -5  565.89   27.97
  -6   2  -5  577.56   29.68
  -6  -2  -5  583.70   28.78
   6  -2   5  589.35   27.36
  -6   2  -5  608.29   28.77
   6   2   5  551.62   27.01
  -6  -2  -6  822.42   37.10
   6   2   6  815.77   35.66
  -6  -2  -6  765.12   33.76
   6   2   6  774.63   34.58
   6  -2   6  812.74   36.59
  -6  -2  -6  800.16   36.94
  -6   2  -6  818.56   38.87
   6  -2   6  806.31   35.37
   6   2   6  814.38   35.43
  -6   2  -6  757.68   36.95
  -6  -2  -6  750.67   37.11
  -6   2  -7  229.77   17.48
   6   2   7  270.88   16.20
  -6  -2  -7  212.22   17.53
   6  -2   7  215.99   15.07
  -6  -2  -7  245.08   14.36
  -6   2  -7  251.78   13.45
   6   2   7  248.32   15.56
  -6  -2  -7  232.56   17.17
   6   2   7  243.49   15.07
   6  -2   7  249.24   16.63
  -6  -2  -7  242.69   17.88
  -6   2  -7  213.04   18.28
  -6  -2  -7  242.74   15.10
   6  -2   8  106.89   10.03
   6   2   8   79.49    9.22
  -6  -2  -8   75.61    7.82
  -6   2  -8   85.04    7.45
   6   2   8   66.68    8.43
  -6   2  -8   81.62   12.13
  -6  -2  -8   57.50   11.75
  -6  -2  -8   78.52   10.84
   6   2   8   97.69    9.36
  -6   2  -8   86.97   13.06
  -6  -2  -8   80.42   12.20
   6  -2   8   71.06    9.53
  -6  -2  -8   77.30    8.74
   6   2   9   44.26    7.45
   6  -2   9   27.06    6.58
  -6  -2  -9   43.16    6.45
  -6   2  -9   43.83    6.04
   6   2   9   47.78    7.60
  -6  -2  -9   20.05   10.72
  -6   2  -9   35.81   11.34
  -6  -2  -9   40.05    9.82
  -6   2  -9   35.83   12.59
  -6  -2  -9   26.41   10.98
   6   2   9   54.13    7.91
   6  -2   9   33.92    7.75
  -6  -2  -9   48.88    7.80
   6  -2  10  297.40   20.34
   6   2  10  292.08   20.40
  -6  -2 -10  289.72   18.12
   6   2  10  355.90   20.47
  -6   2 -10  323.80   17.86
  -6  -2 -10  316.99   25.52
  -6   2 -10  325.95   26.01
  -6  -2 -10  313.65   22.33
  -6   2 -10  355.96   27.68
   6   2  10  341.63   20.77
  -6  -2 -10  294.22   24.50
   6  -2  10  314.22   21.82
  -6  -2 -10  300.98   19.85
   6   2  11    9.99    5.69
   6  -2  11    9.30    6.40
  -6  -2 -11   25.38   13.22
  -6   2 -11   13.65   11.77
   6   2  11    6.27    5.99
  -6  -2 -11    3.24    8.84
   6  -2  11    7.00    7.22
  -6   2 -11   31.16   14.95
  -6  -2 -11   21.62   13.38
   6   2  11   10.27    6.78
  -6  -2 -11    7.69    4.46
  -6  -2 -12  455.81   24.70
  -6  -2 -12  464.43   29.18
   6   2  12  446.66   27.75
   6  -2  12  475.78   28.36
  -6   2 -12  408.77   32.99
   6   2  12  416.22   26.68
   6  -2  12  470.18   29.31
  -6  -2 -12  431.35   32.57
   6   2  12  456.63   25.60
   6   2  13    5.40    6.32
  -6  -2 -13   15.02   15.73
  -6  -2 -13    5.44   11.22
   6   2  13   -5.20    8.10
   6  -2  13   -2.03    7.41
   6   2  13    1.83    7.13
   6  -2  13    9.06    7.87
   6   2  14  173.92   17.15
   6   2  14  146.08   13.85
   6   2  14  126.64   15.76
   6  -2  14  140.57   17.16
   6  -2  14  159.01   16.83
  -6  -2 -14  159.27   19.05
   6  -2  15   22.74    9.27
   6   2  15   20.76    9.45
   6   2  15   24.39    7.77
   6   2  15    9.92    7.59
   6  -2  15    2.29    9.30
   6   2  16   13.18    8.04
   6  -2  16   10.94    8.70
   6   2  16    7.34    6.38
   6   2  16   12.61    8.03
   6  -2  16    4.83    8.84
   6   2  17   -6.64    9.60
   6  -2  17   -7.61   10.08
   6   2  17    9.24    9.36
   6  -2  17   20.72    9.99
   6   2  18   27.81   10.74
   6  -2  18   37.09   12.44
   6   2  18   21.74   10.54
   6  -2  18   45.82   11.79
   6   2  19    9.66    9.60
   6  -2  19    2.76   11.36
   6   2  19   -5.03   10.37
   6  -2  19  -10.06   10.92
   6   2  20   12.52   10.33
   6  -2  20    5.71    9.18
   6  -2  20   -2.61    8.85
   6   2  20    5.20    9.73
   6   2  21   -7.75   11.03
   6  -2  21   -5.88   10.74
   6  -2  21   -2.69    9.39
   6   2  21   -5.37   11.08
   6  -2  22   -3.02   11.99
   6   2  22   30.41   11.61
   6  -2  22   11.09   10.15
  -6   3  23   -3.45   12.02
   6  -3 -23   -3.66   12.09
   6   3 -23    3.73   13.62
  -6  -3  22    9.19   19.94
  -6   3  22   -6.68   12.47
   6   3 -22   10.81   10.87
   6  -3 -22   -3.55   10.70
  -6  -3  21    4.46   17.38
   6  -3 -21   -3.42   10.66
   6   3 -21   -6.94   12.09
  -6   3  21   -4.10   16.92
  -6   3  21   -3.22   10.34
   6  -3 -20   -3.28   11.45
   6   3 -20    6.64   10.98
  -6  -3  20   25.86   20.43
  -6   3  20    9.26   11.29
   6   3 -19   -3.17   10.76
   6  -3 -19   -3.14   11.21
  -6   3  19    2.95   10.79
   6   3 -18    3.00   10.73
   6  -3 -18    8.96    9.87
  -6   3  18    5.61    9.78
   6  -3 -17    5.65    9.35
   6   3 -17    8.50   10.36
  -6   3  17    7.98    9.72
  -6   3  17    5.34    4.29
   6  -3 -16   55.89   12.91
   6   3 -16   42.56   12.90
  -6   3  16   51.16    8.17
  -6   3  16   54.98   12.75
   6  -3 -15   -4.98   10.09
   6   3 -15    2.49    8.22
   6  -3 -15   -1.15    4.32
  -6   3  15    2.46    4.59
  -6   3  15    7.00    7.93
  -6   3  14  363.56   23.95
  -6   3  14  394.06   21.65
   6  -3 -14  433.32   29.44
   6   3 -14  284.13   25.46
   6  -3 -14  339.38   20.52
   6   3 -14  341.83   25.38
   6  -3 -14  373.13   26.29
  -6   3  14  398.09   27.70
   6   3 -14  347.23   24.41
  -6   3  13   48.01    9.20
  -6   3  13   61.40    7.92
   6   3 -13   57.68   11.49
   6  -3 -13   69.29   10.19
   6  -3 -13   68.63   12.24
   6   3 -13   68.75   10.50
   6  -3 -13   68.26    8.05
   6   3 -13   53.26   10.24
   6  -3 -13   51.70   10.09
  -6   3  13   57.90   11.10
  -6  -3  13   78.18   13.76
   6   3 -13   53.98   10.02
  -6   3  12    1.06    3.41
  -6   3  12    1.46    4.84
   6  -3 -12   -1.47    5.25
   6   3 -12   -1.52    5.57
   6   3 -12   -1.97    6.68
   6  -3 -12   -1.97    7.51
   6  -3 -12   -1.00    3.65
   6   3 -12   -1.71    6.24
   6  -3 -12    1.71    6.26
  -6   3  12    1.84    5.91
   6   3 -12   -3.08    5.63
  -6  -3  12    4.15    8.85
  -6   3  11   63.43    8.67
  -6   3  11   63.70    7.22
   6  -3 -11   37.71    8.99
   6  -3 -11   53.08    8.23
   6   3 -11   32.19    7.32
   6   3 -11   62.84   10.31
   6  -3 -11   31.32    5.51
   6   3 -11   77.30   10.04
   6  -3 -11   45.80    8.58
   6   3 -11   38.84    8.39
  -6  -3  11   24.91    9.58
  -6   3  11   38.71    8.55
  -6   3  10  208.20   15.35
  -6   3  10  185.07   13.18
   6  -3 -10  201.48   16.81
   6   3 -10  220.42   17.58
   6  -3 -10  212.02   13.51
   6   3 -10  185.55   15.53
   6  -3 -10  176.18   15.15
   6   3 -10  194.65   14.98
   6   3 -10  223.88   16.55
  -6   3  10  201.41   16.50
  -6  -3  10  174.21   17.39
   6  -3 -10  193.35   14.76
  -6   3  10  229.72   18.93
  -6   3   9  318.43   19.69
  -6   3   9  324.27   17.90
   6   3  -9  320.57   14.01
   6   3  -9  310.43   20.84
   6  -3  -9  309.11   20.55
   6  -3  -9  326.64   17.64
   6   3  -9  290.91   19.67
   6  -3  -9  301.86   19.61
  -6  -3   9  304.58   21.59
   6   3  -9  290.58   18.56
   6   3  -9  296.73   19.38
   6  -3  -9  343.59   19.66
  -6   3   9  349.20   23.03
   6   3  -8  434.26   18.00
  -6   3   8  501.23   23.03
   6   3  -8  409.68   24.26
   6  -3  -8  425.86   22.79
   6  -3  -8  428.66   24.37
  -6  -3   8  455.97   18.90
   6  -3  -8  446.86   21.84
   6   3  -8  455.86   24.35
   6  -3  -8  447.91   23.98
  -6   3   8  374.12   24.82
   6   3  -8  415.08   23.21
   6   3  -8  409.27   22.49
  -6  -3   8  435.33   25.76
  -6   3   7  361.03   18.43
  -6  -3   7  321.16   15.40
  -6  -3   7  336.62   21.06
  -6   3   7  375.27   21.90
   6   3  -7  317.37   18.12
   6   3  -7  346.08   19.40
   6   3  -7  332.39   19.34
   6  -3  -7  319.46   18.91
   6  -3  -7  369.61   19.18
   6  -3  -7  365.37   20.31
   6   3  -7  333.75   19.98
  -6   3   6  834.17   35.54
  -6  -3   6  786.23   32.88
  -6  -3   6  829.93   38.08
   6   3  -6  819.64   35.08
   6   3  -6  833.61   36.12
  -6   3   6  831.27   38.54
   6   3  -6  835.54   36.37
   6  -3  -6  833.14   36.10
   6  -3  -6  789.14   35.48
  -6  -3   6  864.98   39.25
  -6   3   6  885.86   39.69
  -6   3   5   96.79    8.32
   6   3  -5  116.05    5.65
  -6  -3   5  108.67    7.64
   6  -3  -5  123.65    8.90
  -6  -3   5  104.74   10.36
  -6   3   5  131.68   11.16
  -6  -3   5  126.30   10.35
  -6   3   5  128.19   10.56
   6   3  -5  126.04    8.32
   6   3  -5   95.92    8.38
   6   3  -5   99.50    8.40
   6  -3  -5  101.04    8.37
  -6   3   5  121.98   11.00
   6   3  -4  257.91   13.27
   6  -3  -4  231.93   12.74
  -6  -3   4  193.13   13.92
  -6   3   4  219.11   14.68
   6   3  -4  213.12    9.46
  -6   3   4  228.99   13.30
  -6  -3   4  219.21   12.22
  -6   3   4  217.45   13.99
  -6  -3   4  216.04   13.83
  -6   3   4  233.98   14.58
  -6  -3   4  221.54   13.24
   6  -3  -4  242.02   13.11
   6  -3  -4  251.17   13.28
   6   3  -4  220.84   11.66
  -6  -3   4  219.38   14.33
  -6   3   4  230.89   14.59
  -6   3   3   48.29    6.10
  -6  -3   3   36.13    5.55
  -6  -3   3   47.63    5.20
   6   3  -3   51.04    4.23
  -6   3   3   52.51    6.00
   6  -3  -3   53.68    5.38
   6   3  -3   48.31    3.32
  -6   3   3   43.03    5.95
  -6  -3   3   52.90    5.64
  -6  -3   3   48.02    5.91
  -6   3   3   49.44    6.14
   6  -3  -3   51.40    5.14
   6   3  -3   50.26    5.13
  -6  -3   3   50.23    5.73
  -6   3   2   -0.75    2.80
  -6  -3   2   -1.55    2.69
   6   3  -2    1.08    1.26
  -6   3   2   -0.79    2.31
  -6  -3   2    0.50    1.90
  -6   3   2    0.78    2.91
  -6  -3   2   -0.69    3.27
   6   3  -2    2.38    1.91
   6  -3  -2   -0.61    1.71
  -6  -3   2    0.54    2.54
  -6  -3   1  719.53   29.43
  -6   3   1  643.70   28.74
   6   3  -1  687.37   26.33
   6   3  -1  681.59   28.93
  -6  -3   1  664.37   26.43
  -6  -3   1  675.11   29.74
  -6  -3   1  657.06   26.94
  -6   3   1  662.64   29.31
   6  -3  -1  651.25   31.23
  -6  -3   1  657.26   30.03
  -6   3   1  713.25   29.86
   6   3  -1  666.39   28.33
  -6  -3   1  661.20   26.89
   6   3   0 1322.73   49.69
  -6  -3   0 1327.99   49.52
  -6  -3   0 1328.81   49.87
  -6  -3   0 1328.42   53.38
   6   3   0 1303.97   52.38
  -6  -3   0 1346.84   49.49
  -6   3   0 1350.58   52.51
   6  -3   0 1414.64   54.87
  -6  -3   0 1369.14   52.47
  -6   3   0 1397.48   52.75
  -6  -3   0 1284.26   48.60
  -6  -3   0 1303.77   51.38
  -6   3   0 1277.54   51.10
  -6   3   0 1286.44   51.45
  -6  -3   0 1308.01   51.72
  -6  -3  -1    3.87    2.26
   6   3   1    5.43    3.31
   6   3   1    0.91    1.71
  -6  -3  -1    4.22    2.19
   6  -3   1    6.35    3.32
  -6  -3  -1   -0.91    3.99
  -6  -3  -1    2.98    2.54
  -6   3  -1   -0.76    2.70
  -6   3  -1    1.22    2.61
  -6  -3  -1    4.54    2.12
  -6  -3  -1    3.81    2.89
  -6   3  -1   -1.14    2.34
   6   3   2 1513.75   62.01
  -6  -3  -2 1634.64   63.82
  -6  -3  -2 1574.94   60.07
  -6  -3  -2 1593.13   60.03
   6   3   2 1600.14   59.73
   6   3   2 1549.82   62.40
   6  -3   2 1605.40   62.70
  -6  -3  -2 1508.78   60.08
  -6   3  -2 1672.41   62.73
  -6   3  -2 1558.24   60.80
  -6  -3  -2 1568.66   61.09
  -6   3  -3   49.83    6.04
  -6  -3  -3   53.81    6.34
   6   3   3   54.65    6.79
  -6  -3  -3   54.44    5.79
  -6  -3  -3   56.89    5.60
   6   3   3   47.42    5.01
  -6  -3  -3   58.21    8.04
   6   3   3   41.62    5.97
  -6   3  -3   52.61    6.99
   6  -3   3   60.73    6.96
  -6  -3  -3   60.54    6.04
  -6  -3  -3   47.78    3.76
   6  -3   4  170.64   11.25
  -6  -3  -4  143.22   11.47
  -6   3  -4  180.83   12.34
   6   3   4  159.51   11.01
   6   3   4  165.18   12.19
  -6  -3  -4  180.10   13.87
  -6  -3  -4  159.21   10.87
  -6  -3  -4  156.89   10.41
   6   3   4  196.92   11.00
   6  -3   4  174.88   12.11
   6   3   4  164.37   10.99
  -6  -3  -4  155.37   10.94
  -6   3  -4  172.56   13.28
  -6  -3  -4  160.99    8.75
   6  -3   5  179.72   11.87
  -6   3  -5  182.53   13.66
  -6  -3  -5  172.24   13.59
   6   3   5  182.94   12.02
  -6  -3  -5  176.30   12.17
   6   3   5  171.99   11.17
  -6  -3  -5  175.17   11.37
  -6  -3  -5  191.62   15.48
   6   3   5  190.60   13.44
   6   3   5  201.92   12.01
   6  -3   5  185.42   13.07
  -6  -3  -5  167.70   12.48
  -6   3  -5  170.17   14.35
  -6  -3  -5  181.63   10.21
   6  -3   6  163.31   11.51
  -6  -3  -6  149.03   13.63
   6   3   6  158.56   11.40
  -6  -3  -6  162.33   11.79
  -6  -3  -6  158.51   10.91
   6   3   6  165.48   10.95
  -6  -3  -6  148.71   14.01
   6   3   6  151.65   12.21
  -6   3  -6  121.66   12.58
   6   3   6  138.68   10.42
   6  -3   6  140.33   11.95
  -6  -3  -6  189.62   13.54
  -6   3  -6  141.24   14.40
  -6  -3  -6  153.78   10.01
  -6   3  -7  348.49   21.70
  -6  -3  -7  291.08   21.04
   6   3   7  305.45   18.17
   6  -3   7  327.10   18.47
   6   3   7  304.85   19.15
  -6  -3  -7  298.39   18.13
  -6  -3  -7  279.82   16.82
   6   3   7  320.72   17.34
  -6  -3  -7  301.49   21.16
   6   3   7  309.87   17.17
   6  -3   7  292.77   19.13
  -6  -3  -7  293.43   19.91
  -6   3  -7  339.56   23.44
  -6  -3  -7  321.29   16.84
  -6  -3  -8  547.38   27.72
  -6  -3  -8  517.62   26.13
   6   3   8  550.15   26.47
  -6   3  -8  555.41   24.74
   6   3   8  530.62   28.35
  -6  -3  -8  563.94   31.21
   6   3   8  547.22   26.62
   6  -3   8  512.65   28.92
  -6   3  -8  520.77   32.56
  -6  -3  -8  566.08   31.57
  -6   3  -8  550.56   31.64
   6   3   8  547.86   27.76
   6  -3   8  577.81   28.08
  -6  -3  -8  498.26   31.09
  -6  -3  -9  126.51   11.60
  -6  -3  -9  107.03    9.86
  -6   3  -9   98.00    8.41
   6   3   9  131.04   12.29
  -6  -3  -9  121.96   16.15
  -6   3  -9  117.84   16.25
  -6  -3  -9  133.84   15.54
   6  -3   9  125.43   13.00
   6   3   9  103.08   10.38
  -6   3  -9   75.19   15.50
  -6  -3  -9   87.81   13.83
   6   3   9  133.44   12.30
   6  -3   9  100.11   10.89
  -6  -3 -10  333.90   20.84
  -6  -3 -10  328.58   19.37
   6   3  10  308.65   20.76
  -6  -3 -10  308.98   23.84
  -6  -3 -10  357.49   27.50
  -6   3 -10  312.15   25.84
  -6   3 -10  359.38   28.34
   6   3  10  307.85   19.87
  -6  -3 -10  343.51   26.18
   6  -3  10  322.65   22.59
   6  -3  10  324.32   21.08
   6   3  10  319.89   20.99
  -6  -3 -11   61.19    9.21
  -6  -3 -11   40.00    6.79
   6   3  11   38.95    8.56
  -6  -3 -11   63.80   13.72
   6  -3  11   26.81    8.84
  -6   3 -11   49.67   16.39
  -6  -3 -11   77.68   16.68
   6   3  11   55.41    9.02
   6   3  11   46.04    8.85
   6  -3  11   37.74    8.71
   6   3  12   28.47    8.26
   6  -3  12   37.72    9.21
   6   3  12   43.31    9.35
  -6  -3 -12   40.44   13.23
   6  -3  12   42.31   10.24
  -6   3 -12   13.34   14.31
  -6  -3 -12   67.87   16.59
   6   3  12   31.07    8.64
  -6  -3 -12   32.46    8.14
  -6  -3 -12   32.63    6.57
  -6  -3 -13  177.18   20.05
   6   3  13  151.99   15.30
   6  -3  13  164.95   17.62
   6   3  13  179.93   16.17
   6   3  13  183.06   16.87
   6  -3  13  152.23   15.96
   6  -3  14   39.60   11.19
   6   3  14   38.03    9.43
   6  -3  14   32.27    9.57
   6   3  14   59.53   11.28
   6   3  14   31.83    8.24
   6   3  15   62.92   11.46
   6  -3  15   74.52   13.54
   6  -3  15  115.20   14.22
   6   3  15   95.82   13.43
   6   3  15   83.10   11.80
   6  -3  16   93.29   15.50
   6   3  16   88.36   13.12
   6  -3  16   55.79   11.72
   6   3  16   51.70   11.28
   6   3  16   76.80   11.60
   6  -3  17  158.24   18.06
   6   3  17  159.63   15.97
   6   3  17  147.20   17.26
   6  -3  17  182.77   20.71
   6   3  17  206.44   20.08
   6   3  18   -9.49    9.06
   6  -3  18   -2.37    9.77
   6  -3  18    5.37   10.68
   6  -3  19    7.41    9.04
   6   3  19   12.33    9.02
   6  -3  19   -8.38   10.44
   6   3  20   20.40   10.36
   6  -3  20   15.35   10.58
   6  -3  20   34.67   12.36
   6  -3  21    2.65    9.22
   6   3  21    2.63    8.94
   6  -3  21    8.93   10.38
   6   3  22   37.83   12.32
   6  -3  22   21.78   10.65
  -6  -4  23   26.09   20.90
  -6   4  23   -6.82   12.18
  -6  -4  22   18.21   19.78
  -6   4  22   23.13   13.17
   6  -4 -22   34.45   13.46
   6   4 -22   35.08   13.15
  -6  -4  21   13.34   18.35
  -6   4  21   15.93   12.17
   6   4 -21   -3.37   10.19
   6  -4 -21   13.30   12.44
  -6  -4  20   30.15   18.12
  -6   4  20   24.50   11.50
   6   4 -20   32.28   12.63
   6  -4 -20   44.74   12.99
  -6  -4  19   33.23   18.60
   6  -4 -19    3.05    8.91
   6   4 -19    3.07    8.97
  -6   4  19    2.93   10.97
   6   4 -18    2.91    8.79
   6  -4 -18    8.71    9.86
  -6   4  18    2.79    9.22
  -6   4  18    1.51    4.98
   6   4 -17    5.49    8.28
   6  -4 -17   -2.75    8.83
  -6   4  17    2.64    9.42
  -6   4  17    4.39    5.47
   6  -4 -16  183.33   20.40
   6   4 -16  238.98   23.09
  -6   4  16  201.08   20.65
  -6   4  16  251.33   17.46
   6   4 -15   -2.40    7.92
   6  -4 -15    2.41    7.76
  -6   4  15   -1.86    6.48
  -6   4  15   -1.36    4.51
  -6   4  15   -2.32    8.07
   6  -4 -14    9.70    5.01
  -6   4  14   17.80    7.48
  -6   4  14    7.85    4.79
   6   4 -14   11.11    8.49
   6   4 -14   13.74    8.15
   6  -4 -14    6.72    7.82
   6  -4 -14    5.73    7.30
  -6   4  14    2.15    7.68
   6  -4 -13  383.92   21.57
  -6   4  13  361.11   24.21
  -6   4  13  357.01   21.63
   6   4 -13  348.02   25.82
   6  -4 -13  386.22   26.64
   6   4 -13  380.27   25.23
   6  -4 -13  308.24   23.65
   6   4 -13  352.90   23.71
  -6   4  13  378.40   26.14
   6   4 -13  372.27   25.15
   6  -4 -12   13.47    4.91
  -6   4  12   21.76    5.69
  -6   4  12   27.37    7.45
   6   4 -12    7.52    6.58
   6  -4 -12   17.10    5.91
   6   4 -12   25.22    7.61
   6  -4 -12   11.35    7.10
   6   4 -12   13.07    7.00
   6  -4 -12   21.44    7.19
   6   4 -12   38.49    8.68
  -6   4  12   20.22    7.74
   6  -4 -11  177.19   13.43
  -6   4  11  191.58   16.00
  -6   4  11  182.15   13.70
   6  -4 -11  194.31   16.87
   6   4 -11  175.05   16.35
   6   4 -11  186.90   15.74
   6  -4 -11  201.27   16.14
   6   4 -11  193.28   15.35
   6   4 -11  165.40   15.22
  -6   4  11  186.16   16.54
   6  -4 -11  194.26   14.95
  -6   4  10   27.15    5.56
   6  -4 -10   26.96    5.29
  -6   4  10   27.68    7.13
   6   4 -10    9.35    6.00
   6  -4 -10   15.50    6.55
   6  -4 -10   30.53    6.14
   6   4 -10   29.66    6.51
   6   4 -10   26.27    6.86
   6  -4 -10   12.39    5.53
  -6   4  10   36.86    8.72
   6   4 -10   16.76    6.67
  -6   4  10   17.19    6.37
   6  -4  -9  599.95   27.85
  -6   4   9  607.36   28.54
  -6   4   9  571.48   30.00
   6  -4  -9  509.09   29.14
   6  -4  -9  559.77   28.01
   6   4  -9  524.69   29.31
   6   4  -9  580.87   29.75
   6   4  -9  547.34   27.86
  -6   4   9  515.09   31.50
   6   4  -9  536.27   28.76
   6  -4  -9  562.65   28.89
   6   4  -8   50.24    7.71
   6  -4  -8   32.67    5.52
   6   4  -8   37.95    5.95
  -6   4   8   35.09    7.75
  -6   4   8   27.58    5.61
   6   4  -8   31.49    6.47
   6  -4  -8   29.35    6.50
   6   4  -8   39.56    6.76
   6  -4  -8   29.66    5.86
  -6   4   7  151.65   11.72
   6   4  -7  162.19   12.58
   6   4  -7  142.02   10.80
  -6   4   7  182.60   14.54
   6   4  -7  146.15   11.47
   6  -4  -7  166.17   11.80
   6  -4  -7  170.34   11.74
  -6  -4   6  107.63    8.39
  -6   4   6  136.26   10.48
   6  -4  -6  135.06    9.81
   6   4  -6  124.23    9.09
   6   4  -6  126.72   10.54
  -6   4   6  130.23   11.66
   6   4  -6  123.45    9.83
   6  -4  -6  121.69    9.56
  -6   4   5  306.18   17.50
   6   4  -5  300.01   13.65
  -6  -4   5  292.27   15.76
  -6  -4   5  290.69   18.48
  -6   4   5  343.33   19.59
   6  -4  -5  304.86   16.41
  -6   4   5  289.27   17.11
   6   4  -5  318.30   15.36
  -6   4   5  300.92   18.48
   6   4  -5  283.00   16.40
   6  -4  -5  315.49   16.16
   6   4  -5  320.00   16.51
   6   4  -4   50.55    5.55
  -6   4   4   48.28    6.21
   6   4  -4   48.93    4.18
   6   4  -4   54.43    4.51
  -6  -4   4   52.92    7.02
  -6   4   4   50.02    6.64
   6  -4  -4   56.83    5.83
  -6   4   4   53.96    7.03
  -6  -4   4   47.49    6.19
  -6   4   4   43.39    6.20
   6   4  -4   47.96    5.21
   6  -4  -4   48.31    5.20
   6  -4  -4   50.39    5.10
   6   4  -4   62.53    5.81
  -6  -4   4   55.70    7.22
  -6   4   4   53.68    6.95
  -6  -4   3  391.21   21.28
  -6   4   3  411.23   21.57
   6   4  -3  434.81   18.21
  -6  -4   3  446.40   21.50
  -6   4   3  415.62   21.80
   6   4  -3  423.39   19.95
  -6  -4   3  409.75   21.24
  -6   4   3  416.20   21.81
  -6   4   3  422.76   21.47
   6   4  -3  421.85   17.45
  -6   4   3  426.10   21.29
   6   4  -3  448.05   20.03
   6  -4  -3  438.03   19.94
   6   4  -3  413.61   18.98
  -6   4   2 1473.08   58.50
  -6  -4   2 1514.23   58.87
   6   4  -2 1458.35   55.80
  -6  -4   2 1450.44   59.48
   6   4  -2 1493.42   57.93
  -6   4   2 1518.48   59.44
  -6  -4   2 1499.23   58.47
  -6   4   2 1529.54   58.60
  -6  -4   2 1396.87   55.73
   6   4  -2 1497.84   57.07
   6  -4  -2 1572.61   57.44
   6   4  -1   -0.47    1.76
   6   4  -1    2.30    2.86
  -6  -4   1    0.35    1.88
  -6   4   1   -0.81    2.81
  -6  -4   1    0.78    3.34
  -6  -4   1    1.94    4.96
   6  -4  -1   -2.06    3.59
  -6   4   1    4.38    3.01
  -6   4   1   -0.69    3.04
  -6  -4   1   -0.72    2.95
  -6  -4   0  759.00   31.01
  -6   4   0  763.14   31.00
   6   4   0  706.18   29.62
  -6  -4   0  756.47   30.07
   6   4   0  705.93   32.07
  -6  -4   0  711.37   33.90
  -6   4   0  753.35   31.94
   6  -4   0  707.50   33.40
  -6  -4   0  692.24   30.62
  -6   4   0  763.17   31.84
  -6  -4   0  678.88   27.77
  -6  -4   0  753.44   30.80
  -6   4   0  723.01   30.22
  -6  -4   0  719.39   30.33
  -6   4   0  753.73   30.48
   6   4   1    4.60    2.25
  -6  -4  -1    1.77    2.16
   6   4   1   -0.92    3.91
  -6  -4  -1    4.58    1.28
   6  -4   1    6.72    3.67
  -6  -4  -1    2.27    5.46
  -6  -4  -1    3.92    2.77
  -6   4  -1    2.47    3.45
  -6   4  -1    0.61    2.77
  -6  -4  -1    1.74    1.86
  -6   4  -1    3.42    1.99
  -6  -4  -1    2.55    2.81
   6   4   2  831.80   34.90
  -6  -4  -2  843.51   34.93
  -6  -4  -2  821.29   34.34
   6  -4   2  887.32   37.53
  -6  -4  -2  830.47   35.06
   6   4   2  832.43   37.51
  -6  -4  -2  817.84   39.28
  -6   4  -2  875.20   37.50
  -6  -4  -2  842.76   35.64
  -6  -4  -2  831.34   34.50
  -6   4  -2  894.35   34.85
  -6   4  -2  871.90   35.50
   6   4   3  537.69   23.68
  -6  -4  -3  520.25   23.79
  -6  -4  -3  494.70   23.51
   6   4   3  542.30   26.49
  -6  -4  -3  516.82   28.34
   6  -4   3  541.53   25.47
   6   4   3  502.11   24.50
  -6  -4  -3  509.87   23.05
  -6   4  -3  538.91   26.55
  -6   4  -3  482.21   23.94
  -6  -4  -3  473.94   24.09
  -6  -4  -4   79.72    7.36
  -6  -4  -4   53.69    6.65
   6   4   4   66.77    6.65
  -6   4  -4   61.97    7.90
  -6  -4  -4   63.13    7.65
   6   4   4   70.38    8.50
   6   4   4   64.24    6.92
  -6  -4  -4   62.80   10.79
  -6  -4  -4   65.62    7.15
   6  -4   4   71.28    7.76
  -6   4  -4   74.48    9.55
   6  -4   4   61.59    6.67
   6   4   4   59.66    6.41
  -6  -4  -5  118.31    9.82
  -6  -4  -5  128.23   10.01
   6   4   5  110.56    9.11
   6   4   5  118.21   11.42
   6   4   5  118.86    9.12
   6  -4   5  134.84   10.84
  -6  -4  -5  118.68   13.42
  -6  -4  -5  105.17    9.87
  -6   4  -5  119.18   12.76
  -6  -4  -5  127.12   11.84
  -6   4  -5  135.05   11.94
   6  -4   5   99.53    8.82
   6   4   5  125.17    9.65
  -6  -4  -6   50.59    7.06
   6   4   6   26.05    4.85
  -6  -4  -6   35.41    5.80
  -6  -4  -6   29.94    8.14
  -6   4  -6   36.75    8.75
   6   4   6   34.02    7.24
  -6  -4  -6   31.44    9.08
   6   4   6   37.39    5.32
   6  -4   6   29.99    6.41
  -6  -4  -6   26.23    7.76
  -6   4  -6   41.51   10.18
   6  -4   6   43.92    6.05
   6   4   6   30.65    5.66
  -6  -4  -7   -1.08    3.95
   6   4   7   -0.96    3.19
  -6  -4  -7   -2.97    3.27
  -6  -4  -7    8.99    8.09
  -6   4  -7   -1.47    7.92
   6   4   7   -1.38    5.69
  -6  -4  -7   -3.32    8.77
  -6   4  -7   -1.80    9.30
   6   4   7    1.62    3.02
  -6  -4  -7    9.02    8.34
   6  -4   7    2.54    5.34
   6   4   7    1.00    3.89
   6  -4   7    2.96    4.07
  -6  -4  -8   88.73    9.80
   6   4   8   77.57    8.13
  -6  -4  -8   67.47    8.19
  -6  -4  -8  113.08   15.32
  -6   4  -8   74.05   13.17
   6   4   8   92.92   11.06
  -6  -4  -8   75.38   13.42
   6   4   8   86.68    8.51
  -6   4  -8   82.07   14.58
   6  -4   8   86.73   10.68
   6  -4   8   71.98    8.64
   6   4   8   96.39   10.00
   6   4   9    2.20    4.03
  -6  -4  -9   -2.51    5.35
  -6  -4  -9   -1.09    3.72
  -6  -4  -9   11.65   11.82
  -6   4  -9   -3.83   11.46
   6   4   9    3.04    6.04
  -6  -4  -9   -1.85    9.44
  -6   4  -9    4.40   12.37
   6   4   9   -0.98    3.89
   6  -4   9   -4.60    6.09
   6  -4   9   -4.81    5.39
   6   4   9   -1.23    5.40
   6   4  10    4.66    3.74
  -6  -4 -10    1.34    5.21
  -6  -4 -10   -1.16    4.14
  -6  -4 -10    8.75   13.32
   6   4  10    9.50    7.30
  -6  -4 -10   -1.95   10.63
  -6   4 -10   -7.19   13.07
   6   4  10   -3.26    5.22
   6  -4  10   -1.67    7.00
   6  -4  10   -2.64    6.10
   6   4  10    1.35    5.95
   6   4  11   38.11    6.93
  -6  -4 -11   41.24    8.20
   6   4  11   42.59   10.00
  -6  -4 -11   69.85   15.18
  -6  -4 -11   38.87    7.05
  -6   4 -11   49.09   16.91
   6   4  11   51.86    8.54
   6  -4  11   39.69    9.65
   6   4  11   39.96    8.91
   6  -4  11   37.70    8.58
   6   4  12    1.29    4.03
   6   4  12   15.26    8.14
   6  -4  12   -1.58    6.84
   6   4  12    6.43    7.20
   6  -4  12    7.77    7.86
   6   4  12   -2.66    6.87
   6   4  13   61.03   11.10
   6   4  13   60.72   10.62
   6  -4  13   80.19   11.95
   6  -4  13   54.06   11.45
   6   4  14  180.40   17.11
   6  -4  14  148.22   17.45
   6   4  14  190.11   17.08
   6   4  15    1.83    6.69
   6   4  15   -1.98    7.70
   6  -4  15    7.83    7.48
   6  -4  15   -2.35    9.67
   6   4  16   89.48   12.60
   6  -4  16   66.70   13.32
   6  -4  16   85.09   13.49
   6   4  16   58.52   12.14
   6  -4  17  -10.36   10.68
   6   4  17    3.80    7.41
   6  -4  17    6.57    8.36
   6   4  17   -2.19    9.52
   6  -4  18   81.05   15.41
   6   4  18   90.33   13.32
   6   4  18   59.62   12.40
   6  -4  18   71.15   13.64
   6  -4  19   16.77    9.35
   6   4  19   21.46    9.85
   6  -4  19    8.42   10.28
   6  -4  20   -2.49    8.67
   6   4  20   -7.40    9.62
   6  -4  20    8.71   10.37
   6  -4  21   36.01   12.85
   6   4  21    5.09    8.66
   6  -4  21   17.93   11.66
  -6  -5  21    4.39   17.79
  -6   5  21   12.62   12.05
  -6  -5  20   38.44   19.16
  -6   5  20   21.24   12.34
   6   5 -20   42.85   13.54
  -6   5  19   79.02   10.73
   6   5 -19   78.56   15.27
  -6  -5  19   62.14   22.29
  -6   5  19   69.88   15.45
  -6   5  18   85.56   11.42
  -6   5  18   36.44   15.99
   6   5 -18   52.28   12.83
  -6  -5  18   59.76   19.98
  -6   5  18   35.99   11.58
   6   5 -17  126.80   17.33
  -6   5  17   86.50   11.34
  -6  -5  17   95.39   21.51
  -6   5  17  104.78   16.43
  -6   5  17   88.96   19.43
   6   5 -16   31.43    9.88
  -6   5  16   46.86   11.61
  -6   5  16   35.37    9.69
  -6   5  16   40.35    8.22
   6   5 -15   49.48   11.03
   6  -5 -15   43.64   11.11
  -6   5  15   32.26    9.93
  -6   5  15   30.07    8.94
  -6   5  15   39.03    8.04
   6  -5 -14    6.38    7.05
   6   5 -14    2.08    7.09
  -6   5  14   27.93    9.92
  -6   5  14   11.55    6.90
  -6   5  14   30.65    6.94
   6   5 -13   -1.92    7.91
   6  -5 -13   -7.82    8.21
  -6   5  13   -1.84    5.56
  -6   5  13   -1.41    4.40
  -6   5  13    2.00    6.03
   6  -5 -12   58.94   10.29
   6  -5 -12   59.88    8.74
   6   5 -12   40.44    8.85
  -6   5  12   47.55    9.48
  -6   5  12   41.22    7.78
   6   5 -12   76.36   11.57
  -6   5  12   51.83    9.84
   6  -5 -11   -1.62    6.30
   6   5 -11   -3.21    6.13
   6  -5 -11    7.60    4.07
  -6   5  11    6.75    6.84
   6   5 -11   -1.56    6.43
  -6   5  11    3.44    5.85
  -6   5  11    2.66    4.28
   6  -5 -11    1.20    4.30
   6   5 -10    1.29    4.92
  -6   5  10   -1.31    3.96
  -6   5  10    1.62    5.64
   6  -5 -10   12.92    4.67
   6   5 -10   -4.37    6.32
   6  -5 -10   -4.35    6.39
   6   5 -10    1.46    6.01
  -6   5  10   14.03    8.56
   6   5  -9   80.55    9.14
  -6   5   9   98.10   10.10
   6  -5  -9  100.57    9.46
  -6   5   9   82.50   10.76
   6   5  -9   86.62   10.10
   6  -5  -9   94.01   10.71
   6   5  -9  104.97   11.34
  -6   5   9   71.68   11.53
  -6   5   8  130.04   11.51
   6   5  -8  101.26    9.98
   6   5  -8  119.27   11.61
  -6   5   8  128.57   13.63
   6  -5  -8  137.26   10.69
  -6   5   7  193.39   14.30
   6  -5  -7  218.89   13.46
   6   5  -7  203.01   13.35
  -6   5   7  208.38   16.44
   6   5  -7  185.80   14.27
   6   5  -6   29.67    4.10
  -6   5   6   46.23    6.78
   6  -5  -6   32.13    4.81
  -6   5   6   44.97    7.53
  -6   5   6   29.03    5.49
   6   5  -6   34.55    5.22
   6  -5  -6   32.25    4.82
   6   5  -6   36.22    6.49
  -6   5   5  194.64   14.93
   6   5  -5  198.74   13.07
  -6   5   5  181.55   13.92
   6   5  -5  217.92   11.39
   6  -5  -5  210.35   12.83
  -6   5   5  202.87   13.48
   6   5  -5  226.19   12.43
   6  -5  -5  221.03   12.30
   6  -5  -5  203.97   12.16
   6   5  -5  194.77   12.10
   6   5  -4  441.76   20.39
   6   5  -4  475.08   21.54
  -6   5   4  445.31   24.31
  -6  -5   4  463.79   24.08
  -6   5   4  463.17   24.07
  -6  -5   4  425.58   23.53
  -6   5   4  494.98   23.15
   6   5  -4  449.52   21.73
  -6   5   4  447.90   24.39
   6  -5  -4  465.89   21.31
   6   5  -4  494.16   21.59
   6   5  -3   63.10    5.64
   6  -5  -3   62.75    5.59
  -6  -5   3   59.43    7.12
  -6   5   3   69.70    7.62
   6   5  -3   61.68    4.45
   6   5  -3   55.45    5.37
  -6   5   3   57.40    7.24
   6   5  -3   64.24    6.59
  -6   5   3   73.98    7.97
  -6   5   3   84.45    8.20
  -6  -5   3   69.94    7.65
  -6  -5   3   49.80    8.17
  -6   5   3   52.92    6.39
   6   5  -3   58.56    5.75
   6   5  -2  104.73    7.57
   6   5  -2  105.93    8.76
  -6   5   2   92.52    8.18
  -6  -5   2  105.96    8.74
  -6   5   2   90.39    8.57
  -6   5   2  108.43    8.54
  -6  -5   2   97.40   10.93
   6   5  -2   92.70    6.47
  -6  -5   2  135.73    9.63
  -6   5   2  112.84    8.95
   6   5  -1  128.17    8.87
   6   5  -1  135.73   10.52
  -6   5   1  133.34   10.11
  -6  -5   1  114.47    9.24
  -6  -5   1  141.47   12.94
  -6   5   1  158.36   10.41
  -6  -5   1  140.02    9.15
  -6   5   1  140.22    8.90
  -6  -5   1  129.94    9.44
  -6   5   1  120.47    8.99
  -6  -5   0   42.14    5.11
  -6   5   0   28.62    4.22
   6   5   0   35.57    6.37
   6   5   0   47.68    5.19
  -6   5   0   33.80    5.03
   6  -5   0   43.72    6.91
  -6  -5   0   32.38    4.36
  -6  -5   0   34.62    8.51
  -6   5   0   31.90    5.55
  -6  -5   0   36.26    4.75
  -6   5   0   29.00    4.20
   6  -5   1   51.27    6.63
  -6  -5  -1   19.11    7.97
   6   5   1   51.57    7.32
   6   5   1   42.94    5.23
  -6  -5  -1   40.63    5.33
  -6   5  -1   46.42    6.91
  -6  -5  -1   58.08    5.82
  -6  -5  -1   43.43    4.79
  -6   5  -1   47.23    4.77
  -6   5  -1   42.52    5.36
   6   5   2  996.89   40.49
  -6  -5  -2  949.34   45.78
   6  -5   2  950.04   42.03
  -6  -5  -2 1041.84   40.93
   6   5   2  984.12   43.57
  -6   5  -2 1011.47   42.98
  -6  -5  -2  968.27   39.03
  -6   5  -2  967.83   38.93
  -6  -5  -2  937.71   40.06
  -6   5  -2  931.31   39.95
   6   5   3  212.98   13.30
  -6  -5  -3  217.87   18.68
   6  -5   3  207.09   14.15
  -6  -5  -3  214.79   13.54
   6   5   3  233.95   16.27
  -6   5  -3  242.90   16.44
  -6   5  -3  197.41   11.97
  -6  -5  -3  248.13   14.38
  -6  -5  -3  226.59   12.23
  -6   5  -3  214.57   13.71
   6   5   4  418.32   20.91
  -6  -5  -4  377.65   25.57
   6   5   4  380.01   20.41
   6  -5   4  430.03   22.11
  -6  -5  -4  403.96   20.86
   6   5   4  432.22   24.17
  -6   5  -4  422.38   24.68
  -6   5  -4  345.53   21.14
  -6  -5  -4  409.80   22.30
   6   5   5  539.47   26.87
  -6  -5  -5  571.17   27.55
  -6  -5  -5  575.80   33.23
   6   5   5  545.05   26.45
   6  -5   5  594.58   28.41
  -6  -5  -5  572.85   27.27
   6   5   5  592.61   30.67
  -6   5  -5  617.74   32.71
  -6   5  -5  560.28   29.05
  -6  -5  -5  562.10   28.96
   6   5   5  545.96   26.29
   6  -5   5  529.78   26.05
  -6  -5  -6  319.25   18.95
   6   5   6  332.85   18.79
  -6  -5  -6  313.71   18.50
   6   5   6  326.18   21.69
   6  -5   6  325.95   19.60
  -6  -5  -6  388.89   25.95
   6   5   6  305.55   17.19
  -6   5  -6  337.37   24.27
   6   5   6  320.67   17.81
  -6   5  -6  298.27   21.16
   6  -5   6  313.76   17.80
  -6  -5  -7    2.29    4.96
   6   5   7    2.15    3.64
  -6  -5  -7   -1.08    3.96
   6   5   7   -3.12    6.77
  -6  -5  -7    5.69   11.15
  -6   5  -7    1.55    9.56
  -6   5  -7    1.94   10.88
   6  -5   7    1.28    5.48
   6   5   7   -0.96    4.63
   6  -5   7   -4.76    4.97
  -6  -5  -8  138.28   12.33
  -6  -5  -8  107.51   10.88
   6   5   8  134.11   11.32
  -6   5  -8  120.36   16.42
  -6  -5  -8  107.68   16.12
   6   5   8  127.13   14.05
   6  -5   8  127.95   13.02
  -6   5  -8  112.96   17.39
   6   5   8  116.57   10.80
   6  -5   8  124.90   10.94
  -6  -5  -9   25.51    6.28
  -6  -5  -9   16.97    6.34
   6   5   9   34.78    6.48
  -6  -5  -9   46.16   14.10
   6   5   9   37.36   10.04
  -6   5  -9   25.55   14.51
   6  -5   9   29.16    8.25
   6  -5   9   20.62    6.13
   6   5   9   28.04    6.63
  -6  -5 -10   -3.84    5.38
   6   5  10    7.58    5.12
  -6  -5 -10   -4.15    5.90
  -6   5 -10   10.00   15.21
   6  -5  10   -1.67    7.47
   6   5  10    2.57    5.57
   6  -5  10   -2.51    5.27
   6   5  10    3.53    7.40
   6   5  11    2.66    4.27
   6  -5  11   -1.80    7.29
   6   5  11    1.40    5.46
   6  -5  11    1.37    5.24
   6   5  11   -3.64    8.40
   6   5  12   20.82    6.15
   6  -5  12   15.49    8.43
   6   5  12    9.13    5.96
   6  -5  12   23.93    7.02
   6   5  12   28.19    8.93
   6   5  13   23.15    6.31
   6  -5  13   24.86    9.01
   6   5  13   19.74    7.39
   6  -5  13   27.52    7.49
   6   5  13    1.93    6.75
   6   5  14    3.01    4.39
   6   5  14    9.90    8.86
   6   5  14    3.52    6.86
   6  -5  14    6.96    6.07
   6  -5  14    2.21    8.43
   6   5  15   72.66   12.13
   6  -5  15   76.22   11.67
   6   5  15   78.62   12.36
   6  -5  15   51.36   12.58
   6   5  16   39.02   10.80
   6   5  16   35.70    9.97
   6  -5  16   24.61   10.39
   6   5  17   94.03   14.02
   6   5  17   60.40   11.72
   6  -5  17   54.15   13.54
   6   5  18  150.03   17.97
   6   5  18  195.80   19.50
   6  -5  18  220.61   22.71
   6  -5  19   36.31   12.79
   6   5  19   51.08   11.83
   6  -5  20   28.86   12.36
  -6  -6  21   25.68   19.47
  -6  -6  20   12.58   17.29
  -6  -6  19   20.37   17.39
  -6   6  19    3.63    5.30
  -6   6  19   -3.23   14.46
  -6  -6  18   15.80   16.87
  -6   6  18   14.25    6.53
  -6   6  18    6.48   14.72
  -6   6  17   34.74    8.06
  -6  -6  17   68.40   21.42
  -6   6  17   67.82   14.03
  -6   6  17   58.43   19.00
  -6   6  16    8.89    7.15
  -6   6  16   16.91    6.99
  -6  -6  16   32.72   17.47
  -6   6  16    4.91    8.12
  -6   6  16    3.27   12.98
  -6  -6  15   45.03   18.17
  -6   6  15   48.32   11.01
  -6   6  15   38.69    9.60
  -6   6  15   44.45    8.55
  -6   6  14  112.08   14.65
  -6   6  14   82.74   12.83
  -6   6  14   97.68   11.66
  -6   6  13  211.31   19.64
  -6   6  13  244.67   20.48
  -6   6  13  218.75   17.57
  -6   6  12   73.47    9.70
  -6   6  12   69.48   11.68
  -6   6  12   63.28   11.25
  -6   6  11   17.97    5.98
  -6   6  11    7.03    6.15
  -6   6  11   25.83    7.63
  -6   6  10  470.39   31.29
  -6   6  10  521.28   28.70
  -6   6  10  509.69   30.59
  -6   6   9   47.40    8.08
  -6   6   9   27.61    8.05
  -6   6   9   26.74    9.01
   6  -6  -8   53.47    6.68
  -6   6   8   68.10    8.95
  -6   6   8   48.90   10.01
   6  -6  -7  275.06   15.98
  -6   6   7  251.42   17.81
  -6   6   7  274.12   19.86
  -6   6   6  456.04   26.47
  -6   6   6  443.14   26.99
   6   6  -5  177.64   11.32
  -6   6   5  174.82   14.33
  -6   6   5  190.36   15.01
   6   6  -4  148.21   10.17
   6   6  -4  161.26   11.07
  -6   6   4  160.11   13.16
  -6   6   4  162.93   13.03
  -6   6   3   73.11    8.85
   6   6  -3   74.73    6.96
   6   6  -3   71.70    8.02
  -6   6   3   55.74    7.66
   6   6  -2    2.87    4.53
  -6   6   2   -1.31    4.22
   6   6  -2   -1.52    2.96
  -6   6   2   -3.09    4.10
  -6  -6   2    1.34    8.23
  -6  -6   1  739.50   37.51
  -6   6   1  718.56   33.36
   6   6  -1  714.11   33.77
   6   6  -1  752.27   32.26
  -6  -6   0  174.09   16.75
   6  -6   0  148.51   12.37
  -6   6   0  165.81   11.91
   6   6   0  149.63   12.88
   6   6   0  180.38   11.67
   6   6   1  894.97   40.82
  -6   6  -1  859.23   38.22
  -6  -6  -1  861.61   43.83
   6  -6   1  873.31   39.64
  -6   6  -1  899.52   39.50
   6   6   1  894.16   38.00
  -6   6  -2   28.02    7.39
   6   6   2   18.49    6.73
   6  -6   2   24.27    5.46
  -6  -6  -2   27.06   11.52
   6   6   2   35.55    5.48
  -6  -6  -2   20.00    4.51
  -6  -6  -3   78.41   14.36
   6   6   3   59.10    9.47
  -6  -6  -3   79.29    8.02
   6  -6   3   58.36    7.68
  -6   6  -3   53.32   10.29
   6   6   3   75.91    7.99
   6   6   4    4.47    6.68
  -6  -6  -4   13.12   11.31
  -6  -6  -4    3.01    3.59
   6  -6   4   -2.12    4.21
  -6   6  -4   -4.52   10.04
   6   6   4    2.03    3.16
  -6  -6  -5  285.65   24.36
   6  -6   5  298.93   18.78
   6   6   5  332.16   22.09
  -6  -6  -5  356.54   19.30
  -6   6  -5  297.09   22.95
   6   6   5  273.56   17.61
  -6  -6  -6   62.15   15.44
   6   6   6   44.56    9.86
  -6  -6  -6   25.78    5.83
   6  -6   6   40.60    7.52
  -6   6  -6   50.83   14.04
   6   6   6   20.27    5.38
   6   6   7   -1.72    7.11
  -6  -6  -7   -1.18    3.89
  -6   6  -7   -8.28   13.31
   6  -6   7   -2.58    5.60
   6   6   7   -3.57    4.73
   6   6   8    1.80    8.04
  -6  -6  -8    6.15    4.98
   6   6   8   -2.51    4.59
  -6   6  -8   -8.99   12.99
   6  -6   8    4.21    5.88
   6   6   9   48.49   10.71
   6   6   9   39.32    7.26
  -6   6  -9   72.84   17.00
   6  -6   9   50.29    9.19
   6   6  10   15.45    8.18
   6   6  10   47.96    7.92
  -6   6 -10   44.06   16.57
   6  -6  10   26.35    7.78
   6   6  11   21.93    8.55
   6   6  11   27.16    6.64
   6  -6  11   21.37    8.49
   6   6  12    2.05    7.98
   6   6  12    2.98    4.79
   6  -6  12    3.82    6.50
   6   6  13   58.85   11.69
   6   6  13   40.30    8.26
   6  -6  13   44.93   11.14
   6   6  14   27.95    9.48
   6   6  14   12.81    6.25
   6   6  15  207.93   20.29
   6   6  15  171.96   16.21
   6  -6  15  211.20   20.72
   6   6  16   22.31   10.03
   6   6  16   27.26    7.80
   6  -6  16   29.05   10.88
   6  -6  17   93.78   15.25
   6   6  17   88.20   14.67
   6  -6  18   -2.64    9.43
   6   6  18    2.28    8.15
   6  -6  19   10.97    9.79
   6   6  19    4.60    8.78
   6   6  20    2.31    8.80
  -6   7  20    3.94    6.68
  -6   7  20  -17.02   16.56
  -6   7  19   79.88   12.37
  -6   7  19   78.43   19.55
  -6   7  18   11.47    6.34
  -6   7  18   27.23   16.58
  -6   7  17   31.51   10.41
  -6   7  17   31.71    8.30
  -6   7  17   30.56   15.24
  -6   7  16   27.39    7.89
  -6   7  16   49.54   11.69
  -6   7  16   33.87   15.88
  -6   7  15    6.87    8.19
  -6   7  15    5.36    5.21
  -6   7  15   16.92   16.68
  -6   7  14   81.86   13.01
  -6   7  14   59.48   10.11
  -6   7  13   32.56    7.94
  -6   7  13   24.38    8.41
  -6   7  13   10.70    7.68
  -6   7  12   -3.36    5.56
  -6   7  12   -5.73    6.82
  -6   7  12   -2.07    7.04
  -6   7  11   -1.66    4.84
  -6   7  11    2.01    6.06
  -6   7  10   78.81   10.80
  -6   7  10   89.67   14.05
  -6   7  10   93.56   12.97
  -6   7   9  285.42   19.74
  -6   7   9  244.82   19.93
  -6   7   8   40.34    9.57
  -6   7   8   35.67    7.27
  -6   7   7   83.75   10.29
  -6   7   7   57.25    9.68
  -6   7   6  137.20   13.83
  -6   7   6  142.57   13.41
  -6   7   5   20.92    6.41
  -6   7   5   16.98    6.27
  -6   7   4  103.91   11.03
  -6   7   4  102.44   11.32
  -6   7   3  155.63   12.93
  -6   7   3  169.33   14.56
   6   7  -3  156.84   12.43
  -6   7   2   31.29    6.45
  -6   7   2   47.78    8.03
   6   7  -2   45.76    7.69
   6   7  -2   45.41    6.30
  -6   7   1  228.27   15.55
   6   7  -1  268.55   15.85
   6   7  -1  239.74   16.87
  -6   7   0  339.49   19.41
   6   7   0  349.74   19.74
   6   7   0  348.59   21.68
  -6   7  -1  130.66   10.80
   6   7   1  139.65   13.61
   6   7   1  151.20   11.74
   6   7   2    6.38    4.06
  -6   7  -2    1.93    2.81
   6   7   2    5.90    6.70
   6   7   3  431.14   23.35
   6   7   3  437.40   26.62
   6   7   4  143.48   15.16
   6   7   4  144.72   12.03
  -6  -7  -4  130.19   11.71
   6   7   5  -10.41    8.34
   6   7   5    1.21    3.99
  -6  -7  -5    1.18    4.22
   6   7   6  181.03   14.32
   6   7   6  170.44   17.51
  -6  -7  -6  193.24   14.69
   6   7   7   25.01    6.20
   6   7   7   11.32    8.22
   6   7   8  298.84   20.19
   6   7   8  350.60   24.80
   6   7   9  316.63   20.24
   6   7   9  247.45   21.66
   6   7  10  126.55   12.63
   6   7  10   94.24   14.49
   6   7  11   44.77    8.15
   6   7  11   53.73   11.48
   6   7  12   49.49    8.80
   6   7  12   50.81   11.93
   6   7  13   85.87   11.48
   6   7  13   70.20   13.14
   6   7  14   34.15    7.73
   6   7  14   30.01   11.85
   6   7  15   15.78    6.28
   6   7  15    9.40    9.17
   6   7  16   39.55    8.75
   6   7  16   40.64   11.57
   6   7  17   -1.84    5.56
   6   7  17   -4.84    9.24
   6   7  18   24.40   10.28
  -6   8  18    4.05    7.23
  -6   8  18    7.07   15.34
  -6   8  17   33.15   10.92
  -6   8  17   19.91    7.65
  -6   8  17   28.10   17.97
  -6   8  16   24.93    9.75
  -6   8  16   33.30    8.54
  -6   8  16    3.48   14.64
  -6   8  15   -2.43    7.09
  -6   8  15    1.91    5.17
  -6   8  15  -10.35   16.58
  -6   8  14   28.33    7.97
  -6   8  14   14.15    7.62
  -6   8  13  183.92   17.15
  -6   8  13  190.19   19.67
  -6   8  12   31.25   10.49
  -6   8  12   27.52    7.90
  -6   8  11  180.13   18.50
  -6   8  11  177.26   16.62
  -6   8  10    2.12    7.19
  -6   8  10    7.37    5.74
  -6   8   9   12.41    7.56
  -6   8   9    3.54    4.78
  -6   8   8   39.73    7.97
  -6   8   7   37.39    8.05
  -6   8   6   11.74    5.08
  -6   8   5   78.46   10.61
  -6   8   4   -3.33    5.03
  -6   8   3   75.03   10.24
  -6   8   2   13.33    5.53
   6   8  -1   15.93    6.47
  -6   8   1    1.67    5.38
   6   8   0   48.49    9.01
   6   8   0   54.23    7.68
   6   8   1    7.64    6.96
   6   8   1   19.06    5.59
   6   8   2   -3.25    7.15
   6   8   2    2.45    3.70
   6   8   3    8.57    7.45
   6   8   3    8.82    4.40
   6   8   4   13.01    5.20
   6   8   4   23.39    9.32
   6   8   5  238.89   17.21
   6   8   5  247.27   20.60
   6   8   6   -1.39    4.21
   6   8   6   -3.93    7.81
   6   8   7  114.40   11.98
   6   8   7  104.15   14.58
   6   8   8   73.34   10.18
   6   8   8   80.33   13.24
   6   8   9   63.67    9.56
   6   8   9   65.47   13.04
   6   8  10   33.81    7.91
   6   8  10   26.96   10.12
   6   8  11  312.36   21.91
   6   8  11  318.42   26.02
   6   8  12   59.84   10.16
   6   8  12   82.53   14.66
   6   8  13  131.75   14.07
   6   8  13  106.12   16.61
   6   8  14   39.71    8.81
   6   8  14   56.44   13.06
   6   8  15    9.27    6.47
   6   8  15    4.99    8.49
   6   8  16   18.92    7.70
   6   8  16   22.76   11.17
  -6   9  16   -2.06    7.01
  -6   9  15  110.28   16.21
  -6   9  15   61.29   11.12
  -6   9  15   70.13   19.50
  -6   9  14    2.50    7.80
  -6   9  14    6.07    5.91
  -6   9  13   98.98   20.85
  -6   9  13  104.95   15.31
  -6   9  13   79.67   11.94
  -6   9  12   20.20   13.89
  -6   9  12   -2.39    7.68
  -6   9  12   15.83    7.40
  -6   9  11    4.66    6.80
  -6   9  11    7.92    5.78
  -6   9  10   31.97    9.81
  -6   9  10   30.06    8.48
  -6   9   9  127.51   15.98
  -6   9   9  117.93   14.14
  -6   9   8   41.60    9.20
  -6   9   7   73.09   11.13
  -6   9   6   27.84    7.44
  -6   9   5    7.39    5.59
  -6   9   4    5.53    5.75
  -6   9   3   -1.84    6.41
  -6   9   2   -1.84    5.55
  -6   9   1   49.58    9.54
  -6   9   0   22.03    6.60
   6   9   1   39.91    9.36
   6   9   2  114.46   13.96
   6   9   3   38.87   10.09
   6   9   3   40.69    7.47
   6   9   4   21.40    8.87
   6   9   4   18.81    5.79
   6   9   5   13.42    6.18
   6   9   5   20.35    8.26
   6   9   6  168.09   15.15
   6   9   6  181.91   19.12
   6   9   7   96.27   11.64
   6   9   7   81.09   13.60
   6   9   8   11.41    6.36
   6   9   8    6.79    8.09
   6   9   9  243.61   19.05
   6   9   9  253.95   23.09
   6   9  10   17.25    6.76
   6   9  10   31.10   11.96
   6   9  11    1.78    5.54
   6   9  11    2.44    8.51
   6   9  12    3.63    5.67
   6   9  12    2.50    8.25
   6   9  13   48.38    9.56
   6   9  13   53.50   12.37
   6   9  14    1.90    5.94
   6   9  14   25.84   11.75
  -6  10  13   17.11   15.78
  -6  10  13   10.33    8.30
  -6  10  13    2.12    6.40
  -6  10  12   36.96   16.16
  -6  10  12   35.47   10.29
  -6  10  12   12.70    7.23
  -6  10  11   23.08   13.66
  -6  10  11   32.31   11.03
  -6  10  11   44.71   10.17
  -6  10  10    3.24   13.35
  -6  10  10    4.88    7.11
  -6  10  10   -2.14    6.02
  -6  10   9   -2.40    8.35
  -6  10   9   -4.21    5.92
  -6  10   8   -7.08    8.02
  -6  10   8   -2.06    6.01
  -6  10   7   57.12   10.85
  -6  10   6   22.21    7.25
  -6  10   5   40.14    9.36
  -6  10   4   94.49   13.15
  -6  10   3   54.01   10.51
  -6  10   2   29.87    8.70
  -6  10   1  175.34   17.26
  -6  10   0   71.48   11.33
  -6  10  -1  257.57   21.12
  -6  10  -2   13.82    6.36
   6  10   3  134.91   16.02
   6  10   4   -6.22    8.08
   6  10   5   15.15    8.94
   6  10   6    2.24    8.20
   6  10   7   -1.71    5.33
   6  10   7   -2.32    9.39
   6  10   8   26.20    8.44
   6  10   8   23.89   10.24
   6  10   9   -1.79    5.59
   6  10   9   -2.46    8.98
   6  10  10    1.84    5.74
   6  10  10   20.13   10.56
   6  10  11   33.92    9.02
   6  10  11   38.54   12.24
   6  10  12   19.23    7.96
  -6  11  10    3.21   13.95
  -6  11   9   -9.43   13.65
  -6  11   9   17.78    9.50
  -6  11   9    6.82    7.72
  -6  11   8   12.29   14.56
  -6  11   8   -2.50    9.35
  -6  11   8    6.69    6.50
  -6  11   7   -3.00   12.81
  -6  11   7    4.39    6.62
  -6  11   6   -2.93   13.13
  -6  11   6    6.54    7.60
  -6  11   5  131.77   15.57
  -6  11   4   23.76    7.76
  -6  11   3   42.92    9.72
  -6  11   2   40.70    9.40
  -6  11   1  102.60   14.20
  -6  11   0   16.96    7.41
  -6  11  -1    2.11    5.94
  -6  11  -2   58.86   10.44
  -6  11  -3  112.74   14.17
   6  11   6    7.05    9.52
   6  11   7   14.56   10.37
   6  11   8   -7.48   10.29
   6  11   9    5.11    9.96
  -7   0  23   14.19   19.15
   7   0 -23   -7.34   10.71
  -7   0  22   55.64   16.79
   7   0 -22   42.60   14.21
  -7   0  21    6.69   11.95
   7   0 -21    6.84   10.99
  -7   0  20  288.69   28.80
   7   0 -20  262.49   27.07
  -7   0  19   -6.14   12.43
   7   0 -19   -6.27   10.36
  -7   0  18   46.79   13.80
   7   0 -18   59.59   13.67
  -7   0  17    2.77   10.13
   7   0 -17   -2.82    9.07
  -7   0  16   -2.62    9.35
   7   0 -16   -2.66    9.04
  -7   0  15   -9.86   10.53
   7   0 -15   -5.00    8.92
   7   0 -14  200.17   17.20
   7   0 -14  205.41   20.18
   7   0 -13    8.15    6.22
   7   0 -13   -4.34    7.37
  -7   0  13   -2.14    8.19
   7   0 -13    9.30    6.48
   7   0 -12  186.81   17.78
   7   0 -12  179.20   16.44
  -7   0  12  179.82   17.80
   7   0 -12  210.99   16.41
   7   0 -11   -1.19    2.17
  -7   0  11    1.74    2.39
   7   0 -11   -1.85    6.76
   7   0 -11   -2.80    5.45
   7   0 -11    3.24    5.05
  -7   0  11   -1.81    6.47
   7   0 -10    3.70    2.33
  -7   0  10    5.22    3.59
  -7   0  10    0.52    2.04
   7   0 -10    6.79    4.95
   7   0 -10    5.14    4.48
  -7   0  10   -1.64    4.78
   7   0 -10    1.50    5.22
   7   0  -9    1.37    4.28
   7   0  -9    0.47    1.86
  -7   0   9    3.15    3.19
  -7   0   9   -0.93    1.85
   7   0  -9    1.17    3.99
   7   0  -9    1.55    4.51
  -7   0   9    9.91    5.76
  -7   0   9    1.48    4.46
   7   0  -8  437.73   18.03
  -7   0   8  391.11   19.81
  -7   0   8  396.53   17.79
   7   0  -8  389.63   23.88
  -7   0   8  439.20   25.21
  -7   0   8  406.71   23.76
   7   0  -8  416.23   22.24
   7   0  -8  427.71   23.68
   7   0  -7   -1.12    3.89
   7   0  -7   -0.36    1.48
  -7   0   7    1.32    3.71
   7   0  -7    2.86    3.32
  -7   0   7    8.46    5.81
  -7   0   7    0.64    2.28
  -7   0   7   -0.71    1.63
   7   0  -7   -5.00    4.68
  -7   0   7    1.17    3.99
  -7   0   6 1409.16   51.29
   7   0  -6 1381.49   55.60
  -7   0   6 1391.18   58.88
   7   0  -6 1414.73   56.90
  -7   0   6 1284.03   58.91
  -7   0   6 1377.94   58.01
   7   0  -5    0.87    2.78
  -7   0   5   -1.19    3.48
   7   0  -5    1.49    2.17
  -7   0   5    1.03    2.99
  -7   0   5   -1.10    4.00
  -7   0   5   -0.56    1.51
  -7   0   4  202.85   12.98
  -7   0   4  195.39    8.99
  -7   0   4  186.18   13.08
   7   0  -4  197.87   11.38
   7   0  -4  189.71   11.95
  -7   0   4  205.97   13.78
   7   0  -4  196.43   12.15
   7   0  -3    0.59    1.51
  -7   0   3    0.80    2.26
   7   0  -3   -1.46    1.71
  -7   0   3    0.93    2.61
  -7   0   2  296.07   17.07
  -7   0   2  285.81   15.28
   7   0  -2  303.20   15.39
  -7   0   2  275.46   15.85
  -7   0   1   -0.88    2.66
  -7   0   1   -0.64    1.49
  -7   0   1   -0.77    1.58
  -7   0   1    0.69    1.70
   7   0  -1   -0.69    1.53
  -7   0   0   47.30    4.93
  -7   0   0   34.35    5.11
   7   0   0   43.94    6.31
  -7   0  -1   -0.76    2.38
  -7   0  -1   -0.72    3.14
  -7   0  -1    1.91    1.72
   7   0   1    1.01    2.73
  -7   0  -2 2066.30   79.26
  -7   0  -2 2123.92   79.71
   7   0   2 2059.10   80.94
  -7   0  -3   -1.38    3.04
   7   0   3    2.71    2.73
  -7   0  -3    0.81    2.96
  -7   0  -4  206.59   12.61
   7   0   4  209.83   13.57
  -7   0  -4  188.12   13.51
  -7   0  -4  219.37   13.98
   7   0   4  244.72   14.10
  -7   0  -5    3.15    3.42
  -7   0  -5    6.52    5.01
   7   0   5    4.83    3.28
   7   0   5    0.93    3.08
  -7   0  -5    3.15    4.70
  -7   0  -6   35.85    5.67
  -7   0  -6   41.10    7.73
  -7   0  -6   27.59    6.72
   7   0   6   34.35    5.90
   7   0   6   24.17    5.26
  -7   0  -7    1.85    3.82
  -7   0  -7   -4.16    6.49
   7   0   7    1.14    3.32
  -7   0  -7    1.44    6.06
   7   0   7    2.21    3.94
  -7   0  -8   27.19    6.11
  -7   0  -8    4.72    8.51
   7   0   8   19.94    6.02
  -7   0  -8   18.18    9.22
   7   0   8   19.33    5.45
  -7   0  -9   -1.87    3.33
  -7   0  -9    1.77   10.60
  -7   0  -9    3.28    5.25
  -7   0  -9   -3.73    9.64
   7   0   9   -1.37    5.66
   7   0   9   -2.64    5.63
  -7   0 -10  138.48   11.33
  -7   0 -10  164.76   13.62
  -7   0 -10  155.17   18.49
   7   0  10  126.81   13.25
  -7   0 -10  128.64   18.24
   7   0  10  182.69   14.80
  -7   0 -11   -3.21    4.09
  -7   0 -11    2.22   11.75
  -7   0 -11    1.28    7.08
   7   0  11   -3.24    6.31
  -7   0 -11    9.17   12.51
   7   0  11    1.56    5.59
   7   0  12  550.22   31.95
  -7   0 -12  548.08   31.15
  -7   0 -12  629.49   29.55
  -7   0 -12  628.08   40.12
   7   0  12  546.06   32.24
  -7   0 -12  532.69   37.75
  -7   0 -12  536.28   32.79
   7   0  13    1.87    7.14
   7   0  13    1.81    7.34
  -7   0 -13   -5.63    9.82
   7   0  14  167.62   17.44
   7   0  14  189.22   18.18
  -7   0 -14  211.17   19.94
   7   0  15    2.05    8.15
   7   0  15   -4.23    7.73
   7   0  16  465.17   30.52
   7   0  16  453.23   30.99
   7   0  17   -2.34   10.01
   7   0  17   -6.82    9.21
   7   0  18   66.14   13.42
   7   0  18   64.21   13.43
   7   0  19  -10.20   11.24
   7   0  19   -7.43   11.09
   7   0  20   92.48   15.94
   7   0  20  149.09   18.27
   7   0  21   -2.72    9.24
   7   0  21    2.66   10.95
   7   0  22   16.78   11.95
   7  -1 -23   -3.66   11.40
   7   1 -23   11.02   10.71
  -7   1  23    3.57   11.47
  -7   1  23   18.68   20.27
  -7  -1  23   14.31   20.37
  -7   1  22   62.05   16.64
   7   1 -22   28.42   12.49
   7  -1 -22   60.15   15.92
  -7   1  21   43.14   14.04
   7  -1 -21   57.98   14.18
   7   1 -21   54.75   15.65
  -7  -1  20   12.97   11.85
  -7   1  20   -6.38   11.40
   7  -1 -20    3.27   10.20
   7   1 -20    6.56    9.57
  -7   1  19   21.33   12.14
  -7  -1  19   18.59   11.36
   7   1 -19   25.05   12.47
   7  -1 -19   34.38   13.15
  -7  -1  18  180.09   22.32
  -7   1  18  200.07   22.07
   7   1 -18  199.41   22.60
   7  -1 -18  169.48   21.86
  -7  -1  17    5.61   10.01
  -7   1  17   -2.75   10.06
   7   1 -17   -8.45    9.57
   7  -1 -17    2.82    8.78
  -7  -1  16   84.93   15.96
  -7   1  16  106.27   16.62
   7  -1 -16  130.07   16.87
   7   1 -16  127.46   17.26
  -7  -1  15   14.98   10.49
  -7   1  15   21.93    9.51
   7   1 -15    9.96    8.02
   7  -1 -15   17.44    9.72
  -7  -1  14   -2.34    9.65
  -7   1  14    6.81    7.71
   7   1 -14   10.43    7.17
   7   1 -14   13.96    8.11
   7  -1 -14    4.66    7.49
  -7   1  13   61.37    6.83
   7  -1 -13   53.42    9.43
   7   1 -13   58.58    9.64
   7   1 -13   67.03   11.75
   7  -1 -13   75.73   11.99
   7   1 -13   57.42   10.12
   7  -1 -13   79.73   11.58
  -7   1  13   50.53   10.97
  -7  -1  13   52.40   12.10
   7  -1 -12  325.33   16.03
  -7   1  12  242.99   17.34
  -7   1  12  282.75   15.64
   7   1 -12  226.15   20.36
   7  -1 -12  263.93   21.68
   7   1 -12  261.70   20.26
   7  -1 -12  270.33   20.43
  -7  -1  12  283.89   22.76
   7   1 -12  262.13   19.23
   7  -1 -12  273.53   19.65
  -7   1  12  268.31   21.81
   7  -1 -11  240.67   13.23
  -7   1  11  224.97   15.35
  -7   1  11  223.91   13.30
   7  -1 -11  244.86   19.67
   7   1 -11  197.37   17.88
   7   1 -11  214.56   17.70
   7  -1 -11  249.80   18.56
  -7  -1  11  211.12   18.87
   7  -1 -11  234.65   17.10
  -7   1  11  211.18   18.49
   7   1 -11  246.70   17.48
   7  -1 -10   14.21    3.20
   7   1 -10    8.93    2.33
  -7   1  10   18.24    4.88
  -7   1  10   12.65    3.18
   7   1 -10    7.69    4.80
   7   1 -10   -1.69    5.76
   7  -1 -10    7.71    4.82
   7  -1 -10   11.80    6.17
  -7   1  10    6.40    5.16
  -7  -1  10    6.81    5.95
  -7   1  10   20.31    7.76
   7   1 -10   13.43    5.94
   7  -1 -10    7.44    5.20
   7   1  -9   53.47    8.43
   7  -1  -9   69.30    9.13
   7  -1  -9   85.59    6.50
  -7   1   9   65.48    5.99
   7   1  -9   70.01    5.00
  -7   1   9   75.85    7.69
   7   1  -9   77.78    8.64
   7  -1  -9   78.62    8.82
   7  -1  -9   59.73    9.18
   7   1  -9   64.81    9.40
  -7  -1   9   50.75    8.98
  -7   1   9   79.54   10.00
  -7   1   9   62.27   10.37
   7   1  -8  271.61   11.84
   7  -1  -8  270.76   13.69
  -7   1   8  250.97   15.44
  -7   1   8  265.75   13.64
   7   1  -8  279.12   18.76
   7  -1  -8  275.98   18.44
   7   1  -8  252.96   17.36
   7  -1  -8  265.83   17.55
  -7   1   8  268.55   19.19
  -7  -1   8  269.05   18.56
  -7   1   8  262.46   18.01
   7   1  -8  273.82   16.70
   7  -1  -8  300.07   17.33
  -7  -1   8  285.18   19.19
   7   1  -7 1313.51   48.43
  -7  -1   7 1361.68   50.76
  -7   1   7 1359.05   51.14
   7   1  -7 1297.90   55.45
   7  -1  -7 1322.11   55.59
  -7  -1   7 1360.62   57.58
   7   1  -7 1362.79   54.58
  -7   1   7 1306.06   57.22
  -7  -1   7 1284.17   56.27
   7  -1  -7 1393.86   54.84
   7   1  -7 1402.92   57.23
  -7  -1   7 1235.34   57.36
  -7   1   7 1269.18   57.79
  -7  -1   6  771.75   31.62
  -7   1   6  827.83   32.50
   7  -1  -6  778.60   35.00
   7   1  -6  844.49   35.24
  -7  -1   6  790.32   37.87
  -7   1   6  796.94   38.09
   7   1  -6  846.08   36.47
   7  -1  -6  831.33   36.27
  -7  -1   6  807.98   38.81
  -7   1   6  773.05   38.41
  -7  -1   6  820.59   37.38
  -7  -1   6  839.80   37.00
  -7   1   6  793.48   37.52
  -7  -1   5  183.27   13.39
  -7   1   5  175.64   13.30
   7  -1  -5  186.11   11.52
   7   1  -5  170.04   10.98
  -7   1   5  180.84    9.84
   7   1  -5  209.06   12.71
   7  -1  -5  167.88   11.70
  -7  -1   5  157.67   13.06
  -7   1   5  178.35   13.78
  -7   1   5  172.48   12.81
  -7  -1   5  185.43   12.56
  -7  -1   5  190.38   12.98
  -7   1   4  293.92   16.58
  -7  -1   4  298.32   16.10
  -7   1   4  273.99   13.17
  -7   1   4  269.17   16.41
   7   1  -4  311.76   14.64
  -7  -1   4  285.62   16.73
   7  -1  -4  269.51   14.44
   7   1  -4  269.89   15.18
   7  -1  -4  240.01   14.67
   7   1  -4  261.51   14.91
   7  -1  -4  288.85   15.21
  -7  -1   4  240.33   16.07
  -7   1   4  252.72   16.28
  -7  -1   3   12.17    3.27
   7  -1  -3   12.67    2.78
   7   1  -3   11.82    2.48
  -7   1   3    6.82    2.61
   7  -1  -3   16.82    3.30
   7   1  -3   12.44    2.94
  -7  -1   3   15.09    3.77
  -7   1   3   13.03    3.43
  -7   1   3    9.20    4.16
  -7  -1   2   72.58    6.36
  -7   1   2   61.53    6.32
   7   1  -2   70.68    6.24
   7  -1  -2   75.37    6.49
  -7  -1   2   64.88    6.65
  -7   1   2   74.85    7.10
  -7   1   2   82.20    7.97
  -7  -1   2   80.11    8.44
  -7  -1   1   94.85    6.98
  -7   1   1   88.25    7.31
  -7  -1   1  108.40    9.12
  -7   1   1   93.22    8.55
   7   1  -1  110.46    7.79
  -7  -1   1   82.73    7.17
  -7   1   1  104.34    7.83
   7  -1  -1  110.35    7.88
  -7  -1   1   94.65    7.87
  -7   1   1   88.93    7.60
  -7  -1   0   15.52    3.49
  -7  -1   0   10.49    2.33
   7  -1   0   15.22    4.59
   7   1   0   11.55    4.20
  -7  -1   0   18.35    4.24
  -7   1   0   16.76    4.15
  -7   1   0   17.61    3.37
  -7  -1   0   12.43    2.92
   7   1   1  102.93    9.33
   7  -1   1   87.53    8.68
  -7   1  -1  102.58    8.39
  -7  -1  -1   91.28    7.74
  -7  -1  -1   97.25    7.72
  -7  -1  -1   96.79    6.01
  -7   1  -1   76.31    6.70
  -7   1  -1  101.04    7.99
  -7  -1  -1   81.61    6.76
  -7  -1  -1  100.52    7.96
   7   1   2  355.15   19.86
  -7   1  -2  394.64   19.52
   7  -1   2  368.60   20.01
  -7  -1  -2  374.59   18.73
  -7  -1  -2  370.63   16.64
  -7  -1  -2  346.94   18.45
  -7   1  -2  378.74   18.76
  -7  -1  -2  376.38   18.62
  -7  -1  -3   45.32    4.49
  -7  -1  -3   37.45    5.48
   7   1   3   38.76    5.84
   7  -1   3   37.35    5.58
  -7  -1  -3   50.50    5.93
  -7   1  -3   40.26    6.32
  -7   1  -3   29.99    5.05
  -7  -1  -3   42.63    5.88
  -7  -1  -4  548.33   24.53
  -7  -1  -4  564.37   26.38
   7  -1   4  623.23   27.71
   7   1   4  593.07   27.06
  -7  -1  -4  556.77   26.75
  -7   1  -4  541.03   27.32
  -7  -1  -4  534.22   26.71
  -7   1  -4  526.77   26.47
   7   1   4  580.39   26.81
   7  -1   4  579.83   26.80
  -7  -1  -5   52.15    5.69
   7   1   5   60.97    6.65
  -7   1  -5   49.14    5.84
  -7   1  -5   76.41    8.74
  -7  -1  -5   68.91    8.37
  -7  -1  -5   63.05    7.56
  -7  -1  -5   60.36    8.23
  -7   1  -5   51.75    7.96
   7   1   5   58.23    6.70
   7  -1   5   49.49    6.74
   7  -1   5   49.30    6.34
   7   1   5   59.44    6.85
  -7  -1  -6 1040.38   43.80
   7   1   6 1173.41   45.51
  -7   1  -6 1084.32   44.03
  -7  -1  -6 1064.04   45.84
   7   1   6 1103.91   45.94
   7  -1   6 1021.95   46.19
  -7  -1  -6 1008.92   47.03
  -7   1  -6 1034.07   48.11
   7   1   6 1089.85   46.05
   7  -1   6 1155.75   46.46
  -7   1  -6 1038.23   47.25
  -7  -1  -6 1082.51   47.72
  -7  -1  -7   34.75    5.21
  -7   1  -7   22.79    5.01
   7   1   7   29.62    5.08
  -7  -1  -7   36.49    9.10
  -7   1  -7   31.86    8.09
  -7  -1  -7   44.10    7.26
   7   1   7   38.80    6.39
   7  -1   7   34.59    6.55
  -7  -1  -7   37.69    8.44
  -7   1  -7   37.74    8.32
   7   1   7   38.49    6.17
   7  -1   7   29.63    5.92
  -7  -1  -8   44.96    6.12
  -7   1  -8   55.48    7.05
   7   1   8   40.81    6.36
  -7  -1  -8   46.09   10.63
  -7   1  -8   39.26   10.15
  -7  -1  -8   49.05    8.15
   7   1   8   41.40    7.02
   7  -1   8   40.47    7.37
  -7  -1  -8   51.36   10.74
  -7   1  -8   27.44    9.86
   7   1   8   59.14    8.03
   7  -1   8   51.72    7.55
  -7  -1  -9   -0.97    3.70
   7   1   9    7.13    4.56
  -7  -1  -9   -5.37    9.15
  -7   1  -9    1.77    9.55
  -7  -1  -9    8.87    6.32
  -7   1  -9    3.81    4.70
  -7   1  -9   -3.85    9.84
  -7  -1  -9    3.63    9.18
   7   1   9    3.90    4.85
   7  -1   9    1.43    5.34
   7   1   9   -3.96    4.82
   7  -1   9   -1.31    4.58
  -7  -1 -10  163.25   12.68
  -7   1 -10  144.79   12.67
   7   1  10  175.86   12.93
  -7  -1 -10  170.14   15.41
  -7  -1 -10  141.01   18.19
  -7   1 -10  151.27   18.33
   7   1  10  137.95   13.69
   7  -1  10  194.17   16.03
  -7   1 -10  179.24   20.15
  -7  -1 -10  160.77   19.29
   7   1  10  175.52   14.92
   7  -1  10  176.08   14.77
   7  -1  11   55.89    9.65
   7   1  11   42.14    9.07
  -7  -1 -11   44.38    7.35
   7   1  11   42.24    7.31
  -7  -1 -11   42.68   14.62
  -7   1 -11   39.99   14.05
  -7  -1 -11   35.36   10.13
  -7   1 -11   53.67    8.81
  -7  -1 -11   51.58   15.71
   7   1  11   43.36    9.08
   7  -1  11   33.54    8.90
  -7   1 -11   42.32   15.52
  -7  -1 -11   50.56   10.11
   7   1  12    3.37    6.94
   7  -1  12    3.36    6.93
  -7  -1 -12    1.18    4.59
   7   1  12   11.55    5.77
  -7  -1 -12    1.64    7.54
  -7  -1 -12    9.43    9.33
  -7   1 -12    2.55   14.19
  -7  -1 -12   12.20   14.10
   7   1  12  -10.03    8.14
   7  -1  12   -7.21    8.08
  -7  -1 -12    7.48   15.04
  -7   1 -12    4.93   14.24
  -7  -1 -13   16.66   11.04
   7   1  13   17.96    6.24
   7   1  13   30.74    9.48
   7  -1  13   23.39    8.79
  -7  -1 -13   31.53   15.88
   7   1  13   19.75    8.88
   7  -1  13   19.31    9.43
   7   1  14  236.33   17.17
   7   1  14  303.05   22.50
   7  -1  14  271.01   21.61
   7   1  14  216.78   20.01
   7  -1  14  294.20   22.98
   7   1  15  494.07   26.55
   7   1  15  508.49   31.47
   7  -1  15  447.40   30.36
   7   1  15  474.24   30.90
   7  -1  15  489.94   32.07
   7   1  16   56.00   11.92
   7  -1  16   73.53   13.07
   7   1  16   49.76   11.24
   7  -1  16   53.93   11.58
   7   1  17    2.26    7.27
   7  -1  17   -2.41    8.40
   7  -1  17    2.27    7.70
   7   1  17   -2.27    7.72
   7   1  18   54.41   12.62
   7  -1  18   40.30   12.22
   7   1  18   68.86   12.94
   7  -1  18   37.94   11.22
   7   1  19   68.90   13.83
   7  -1  19  117.85   17.39
   7  -1  19  128.52   17.12
   7   1  19   84.08   14.42
   7   1  20   28.05   10.74
   7  -1  20   24.40   11.21
   7   1  20   20.52   10.80
   7  -1  20   23.08   10.42
   7   1  21   -7.89   10.46
   7  -1  21    2.79    9.24
   7   1  21  -10.60   10.32
   7  -1  21    2.65    9.91
   7  -1  22   20.09   11.44
   7   1  22   37.79   13.17
  -7  -2  23   -4.79   19.05
   7  -2 -23   18.12   12.32
  -7   2  23   10.63   13.25
   7   2 -22   -3.54    9.15
   7  -2 -22    3.51   10.94
  -7  -2  22   13.96   19.87
  -7   2  22    3.42   12.22
   7  -2 -21   10.15   11.19
   7   2 -21   10.22   11.27
  -7   2  21    3.30   10.91
   7  -2 -20    3.25    9.80
   7   2 -20   16.32   11.09
  -7   2  20   -3.16   11.03
   7  -2 -19   77.60   16.11
   7   2 -19   71.64   15.61
  -7   2  19   93.68   17.21
   7  -2 -18    5.91    8.62
   7   2 -18   14.79   10.05
  -7  -2  18    2.99   10.93
  -7   2  18    8.64   10.77
   7  -2 -17   33.55   12.04
   7   2 -17   33.57   12.44
  -7  -2  17   51.13   14.09
  -7   2  17   79.06   14.96
   7   2 -16   65.81   13.12
   7  -2 -16   73.73   14.06
  -7  -2  16   34.94   11.82
  -7   2  16   56.60   12.67
   7  -2 -15   -2.47    8.61
   7   2 -15   -4.94    8.38
  -7  -2  15    2.53    8.82
  -7   2  15    2.41    7.73
   7   2 -14  165.63   18.18
   7  -2 -14  179.75   18.81
  -7   2  14  185.16   13.34
  -7   2  14  198.77   19.66
   7   2 -14  183.74   16.66
  -7  -2  14  188.11   20.49
   7  -2 -13   60.24    7.41
  -7   2  13   62.34    7.42
  -7   2  13   69.08    9.26
   7  -2 -13   87.68   13.20
   7   2 -13   69.07   10.48
   7  -2 -13   60.40    9.69
   7   2 -13   46.99   10.36
   7   2 -13   78.70   11.71
   7  -2 -13   67.89   10.74
  -7   2  13   53.74   10.79
  -7  -2  13   71.23   13.62
   7   2 -13   52.13    9.13
   7  -2 -12    6.11    3.74
  -7   2  12   13.29    6.05
  -7   2  12   16.46    4.69
   7  -2 -12    5.92    5.54
   7  -2 -12    9.87    6.89
   7   2 -12   14.93    5.94
   7   2 -12    1.98    6.36
   7   2 -12    8.56    5.97
   7  -2 -12    8.55    5.97
  -7   2  12   13.29    7.11
  -7  -2  12   -2.07    8.68
   7   2 -12    5.75    5.94
   7  -2 -11   70.91    7.22
  -7   2  11   85.61    7.92
  -7   2  11   69.68    8.94
   7  -2 -11   79.95    9.65
   7   2 -11   70.39    9.36
   7   2 -11   61.87   10.16
   7  -2 -11   81.66   11.69
   7   2 -11   60.45    9.63
   7  -2 -11   84.10   11.09
  -7   2  11   80.11   11.16
  -7  -2  11   87.76   13.05
  -7   2  11   63.43   12.10
   7   2 -11   68.33    9.63
   7  -2 -10  497.84   22.81
  -7   2  10  481.50   25.24
  -7   2  10  449.15   22.69
   7  -2 -10  509.99   28.68
   7   2 -10  473.77   28.23
  -7  -2  10  436.59   28.35
  -7   2  10  476.75   27.88
   7   2 -10  493.44   26.05
   7  -2 -10  438.49   25.28
  -7   2  10  485.13   29.80
   7   2 -10  504.46   27.47
   7  -2 -10  420.65   26.12
   7   2  -9   17.55    6.05
   7  -2  -9   50.55    7.83
   7  -2  -9   33.68    4.79
   7   2  -9   31.03    3.04
  -7   2   9   35.09    5.12
   7   2  -9   30.82    6.25
   7  -2  -9   32.62    5.98
  -7   2   9   34.05    6.27
   7   2  -9   36.51    7.39
   7  -2  -9   24.00    6.59
  -7   2   9   37.62    8.39
  -7   2   9   11.61    4.92
  -7  -2   9   52.73    9.62
   7   2  -8 1106.55   41.55
  -7   2   8 1128.42   46.05
   7  -2  -8 1134.36   50.71
   7  -2  -8 1157.21   48.63
   7   2  -8 1127.81   50.81
  -7  -2   8 1172.55   51.61
   7   2  -8 1181.05   48.40
  -7   2   8 1130.70   51.92
   7   2  -8 1161.23   49.90
   7  -2  -8 1200.64   50.01
  -7   2   7    2.77    3.74
  -7   2   7    4.35    5.18
   7   2  -7    2.73    2.92
  -7  -2   7   -1.44    5.14
   7  -2  -7   -0.96    2.60
  -7   2   7   -0.70    2.50
  -7  -2   7    1.28    4.58
  -7  -2   7    1.28    4.23
   7   2  -7    1.10    2.96
   7  -2  -7    4.29    3.01
   7  -2  -6  204.54   13.28
   7   2  -6  230.82   13.49
  -7  -2   6  214.47   15.80
  -7   2   6  218.24   15.96
  -7   2   6  225.69   12.60
  -7  -2   6  225.20   15.18
  -7  -2   6  190.78   14.47
  -7   2   6  226.00   15.81
   7   2  -6  213.07   14.02
   7  -2  -6  216.48   14.00
  -7  -2   6  223.74   16.48
  -7   2   6  230.83   16.66
  -7   2   5  697.99   34.43
   7  -2  -5  753.06   32.47
   7   2  -5  759.83   31.71
  -7  -2   5  718.20   34.68
  -7   2   5  765.90   31.51
  -7  -2   5  707.54   33.36
  -7  -2   5  757.36   33.87
  -7   2   5  774.33   34.96
   7   2  -5  754.09   32.91
   7  -2  -5  753.60   32.76
  -7  -2   5  717.40   35.21
  -7   2   5  732.69   35.32
  -7  -2   4    0.82    3.01
  -7   2   4    0.63    1.97
  -7  -2   4   -1.67    2.99
   7   2  -4    0.57    1.65
   7  -2  -4    3.59    2.09
  -7   2   4   -1.00    3.22
   7   2  -4    1.59    1.95
   7  -2  -4    1.56    1.83
  -7   2   4   -0.99    3.52
  -7  -2   4    1.00    3.99
   7   2  -4   -0.76    2.70
   7  -2  -4   -0.74    2.60
  -7  -2   4   -1.09    3.39
  -7   2   4    2.13    3.52
  -7  -2   3   84.43    7.39
  -7  -2   3   91.80    7.62
  -7  -2   3   89.02    7.23
  -7   2   3  111.76    8.90
   7   2  -3  102.40    6.69
   7  -2  -3   91.99    7.37
  -7   2   3   97.17    9.20
  -7   2   3   97.70    8.70
  -7  -2   3  101.28    8.93
   7   2  -3  110.69    8.02
   7  -2  -3   95.10    7.63
  -7  -2   2   83.09    4.27
  -7  -2   2   78.49    6.98
  -7   2   2  103.54    8.15
  -7  -2   2   84.58    6.79
  -7   2   2   92.04    8.48
  -7  -2   2   74.39    8.30
  -7  -2   2   91.53    8.02
  -7   2   2   80.42    7.53
   7   2  -2   71.29    6.53
   7  -2  -2   88.99    7.11
  -7  -2   1   35.32    2.99
  -7  -2   1   30.05    4.63
  -7   2   1   24.97    4.00
  -7  -2   1   34.02    3.88
  -7  -2   1   40.11    5.85
   7  -2  -1   41.72    6.26
  -7   2   1   32.69    5.15
  -7  -2   1   34.62    4.81
  -7   2   1   35.47    4.84
  -7   2   1   25.58    4.09
  -7  -2   1   32.47    4.59
   7   2  -1   32.33    4.18
   7  -2  -1   44.48    4.91
  -7  -2   0  206.76   12.66
  -7  -2   0  197.39   10.95
   7  -2   0  247.06   15.37
  -7  -2   0  240.32   13.58
  -7   2   0  203.79   12.85
  -7  -2   0  224.47   10.25
  -7  -2   0  194.68   11.89
  -7   2   0  196.07   11.84
   7   2   1   90.11    8.90
   7  -2   1   87.42    8.68
  -7  -2  -1   82.45    7.30
  -7   2  -1   75.51    7.50
  -7  -2  -1   86.72    7.84
  -7  -2  -1   87.55    5.81
  -7  -2  -1   80.28    6.64
  -7   2  -1   91.49    7.07
  -7  -2  -1   74.01    7.09
  -7   2  -1   69.01    6.83
  -7   2  -2  706.91   31.88
   7   2   2  702.75   32.86
   7  -2   2  737.20   33.14
  -7  -2  -2  664.87   30.53
   7   2   2  797.26   31.99
  -7  -2  -2  677.25   31.71
  -7  -2  -2  738.34   29.22
  -7   2  -2  704.09   31.09
  -7  -2  -2  707.14   31.21
  -7  -2  -3    2.24    2.23
  -7  -2  -3    1.85    4.26
   7   2   3    0.92    2.68
   7   2   3    2.50    3.04
   7  -2   3    4.83    3.37
  -7  -2  -3    3.84    3.17
  -7   2  -3    8.17    3.60
  -7  -2  -3    1.67    3.51
  -7  -2  -4   78.82    6.57
   7   2   4   67.08    7.23
  -7  -2  -4   63.95    8.18
   7   2   4   75.96    7.49
  -7   2  -4   52.81    7.74
   7  -2   4   70.52    7.91
  -7  -2  -4   78.38    7.79
  -7  -2  -4   75.86    8.15
   7   2   4   84.10    7.96
  -7   2  -4   69.47    7.91
   7  -2   4   71.32    7.32
  -7  -2  -5   33.97    4.75
   7   2   5   21.56    4.72
  -7   2  -5   30.73    6.36
  -7  -2  -5   30.39    6.73
  -7  -2  -5   30.29    6.55
  -7  -2  -5   33.17    6.53
   7   2   5   21.41    4.61
  -7   2  -5   29.48    7.16
   7  -2   5   21.08    4.82
   7   2   5   33.40    5.50
   7  -2   5   26.05    4.90
  -7  -2  -6 2046.40   77.51
   7   2   6 2116.29   79.55
  -7  -2  -6 2088.42   81.00
   7  -2   6 2006.46   80.31
   7   2   6 2003.40   78.76
  -7  -2  -6 2022.21   80.79
  -7   2  -6 1904.71   81.90
   7  -2   6 2039.18   79.34
  -7  -2  -6 1940.90   81.00
  -7   2  -6 1977.01   81.03
   7   2   6 2040.09   79.28
  -7  -2  -7   29.91    5.20
  -7   2  -7   37.21    5.38
   7   2   7   42.04    6.50
  -7  -2  -7   21.52    8.07
  -7   2  -7   32.20    8.60
  -7  -2  -7   40.55    8.57
   7   2   7   29.45    5.55
   7  -2   7   31.00    6.30
  -7  -2  -7   46.43    8.79
  -7   2  -7   30.27    9.20
   7   2   7   27.29    5.63
   7  -2   7   34.79    6.16
   7   2   8  282.49   18.07
  -7  -2  -8  288.89   21.72
  -7   2  -8  271.23   21.22
   7  -2   8  304.25   18.55
  -7  -2  -8  284.41   16.77
  -7   2  -8  279.85   15.90
   7   2   8  352.54   19.00
  -7  -2  -8  279.93   19.68
   7   2   8  295.86   17.86
   7  -2   8  257.24   18.55
  -7  -2  -8  233.10   20.01
  -7   2  -8  323.49   23.36
  -7  -2  -8  282.68   17.88
   7  -2   9   31.12    7.15
   7   2   9   37.95    7.70
  -7  -2  -9   30.02    5.72
   7   2   9   29.05    6.67
  -7   2  -9   26.36    5.56
  -7  -2  -9   10.97   10.03
  -7   2  -9   17.89   10.49
  -7  -2  -9   44.23   10.77
  -7   2  -9   30.08   11.85
  -7  -2  -9   30.34   11.35
   7   2   9   25.54    6.58
   7  -2   9   28.05    7.95
  -7  -2  -9   37.44    7.48
  -7  -2 -10  102.60   10.01
   7   2  10  104.86   10.75
  -7  -2 -10   90.37   15.62
  -7   2 -10  126.78   17.36
  -7   2 -10   89.72    9.37
  -7  -2 -10   97.20   13.99
  -7   2 -10  119.61   18.39
   7   2  10  113.46   11.65
  -7  -2 -10   82.00   15.47
   7  -2  10  125.03   13.49
   7  -2  10  124.30   12.16
   7   2  10  102.75   11.50
  -7  -2 -11   39.93    7.05
   7   2  11   41.92    7.95
  -7  -2 -11   43.52   16.41
  -7   2 -11   53.85   15.09
  -7  -2 -11   25.01   10.14
  -7   2 -11   53.20   16.36
  -7  -2 -11   30.92   14.14
   7   2  11   32.09    7.72
   7  -2  11   38.00    9.11
   7   2  11   27.84    8.17
   7  -2  11   21.42    7.45
  -7  -2 -12    1.20    4.30
   7   2  12    1.32    6.00
   7  -2  12    1.66    6.95
   7   2  12    1.67    6.26
  -7  -2 -12   -1.76   10.24
   7   2  12   14.22    7.07
  -7  -2 -12   -4.80   13.99
   7  -2  12   -3.71    8.67
  -7  -2 -12    5.08   14.41
  -7   2 -12    2.49   15.29
  -7  -2 -13  129.64   17.33
   7   2  13  131.29   12.74
   7   2  13  138.55   14.89
   7  -2  13  101.48   13.37
  -7  -2 -13  154.64   22.16
   7   2  13  107.41   13.73
   7  -2  13  138.84   16.06
   7   2  14   92.83   10.87
   7   2  14   91.96   13.22
   7  -2  14   72.16   11.79
   7  -2  14   76.01   12.72
   7   2  14   61.93   10.88
   7   2  15   47.77    8.72
   7  -2  15   44.63   11.10
   7   2  15   52.37   10.79
   7  -2  15   20.21    8.90
   7   2  15   57.03   11.43
   7  -2  16   -9.41    8.99
   7   2  16    4.11    7.51
   7   2  16   -2.15    8.37
   7  -2  16   -2.13    7.98
   7   2  16   -1.48    5.99
   7  -2  17    2.47    9.42
   7   2  17    4.32    8.24
   7  -2  17    6.73    9.09
   7   2  17   -4.51    9.46
   7  -2  18   12.88    9.64
   7   2  18    9.03    8.28
   7   2  18   21.19   10.07
   7  -2  18   28.24   10.23
   7  -2  19   40.16   13.40
   7   2  19   42.34   11.21
   7  -2  19   26.99   10.70
   7   2  19   22.06    9.62
   7  -2  20    2.77    9.41
   7   2  20   -2.44    9.11
   7  -2  20    7.62    9.49
   7   2  20   -2.54    9.90
   7  -2  21   14.26   10.44
   7   2  21   10.06    8.99
   7   2  21    7.86   10.02
   7  -2  21   23.62   10.83
  -7   3  23   -7.01   11.91
  -7  -3  22    4.66   18.88
   7   3 -22   13.99   11.88
   7  -3 -22   -3.45   10.76
  -7   3  22    3.40   10.59
   7   3 -21    3.36    9.81
   7  -3 -21   -3.33   10.70
  -7  -3  21   40.69   23.64
  -7   3  21   13.09   13.97
   7  -3 -20   -3.20    9.65
   7   3 -20   -3.22   10.35
  -7   3  20    3.14    9.80
   7  -3 -19    3.05   10.65
   7   3 -19    3.07    8.96
  -7   3  19   12.04   10.75
   7   3 -18  133.92   18.79
   7  -3 -18   72.62   15.94
  -7   3  18  117.37   18.08
   7   3 -17    5.50    9.09
   7  -3 -17    5.50    8.83
  -7   3  17    2.71    8.97
   7   3 -16   -2.58    8.29
   7  -3 -16    2.59    8.56
  -7   3  16   10.20    8.19
   7   3 -15   89.34   14.75
   7  -3 -15  118.74   15.96
  -7   3  15  119.00   15.91
  -7  -3  15  100.29   16.41
  -7   3  15   91.08    9.96
   7   3 -14   11.82    6.45
   7  -3 -14   -2.26    7.46
   7   3 -14   -2.25    7.01
  -7   3  14    4.93    6.14
  -7   3  14    3.49    4.06
  -7   3  14    4.42    8.26
  -7  -3  14   -7.24    9.40
   7  -3 -13  415.17   22.95
  -7   3  13  470.43   27.03
  -7   3  13  445.74   23.79
   7   3 -13  448.35   29.43
   7  -3 -13  443.30   29.53
   7   3 -13  405.65   27.24
   7  -3 -13  393.06   26.89
  -7   3  13  467.32   29.84
   7   3 -13  491.59   27.73
   7   3 -13  407.75   26.31
  -7  -3  13  430.73   30.35
   7  -3 -12   66.65    8.12
  -7   3  12   72.42   10.12
  -7   3  12   71.70    8.15
   7   3 -12   87.75   10.71
   7  -3 -12   90.03   10.76
   7   3 -12   61.61   10.83
   7  -3 -12   75.17   11.93
   7   3 -12   71.63   10.64
   7  -3 -12   68.48   10.26
  -7   3  12   77.62   11.73
  -7  -3  12   92.42   14.61
   7   3 -12   90.98   11.16
   7  -3 -11  136.09   10.71
  -7   3  11  124.71   12.22
  -7   3  11  130.08   10.73
   7  -3 -11  146.47   14.91
   7   3 -11  139.92   14.89
   7  -3 -11  124.00   12.15
   7   3 -11  136.24   13.16
   7   3 -11  129.43   12.46
  -7  -3  11  131.95   15.31
  -7   3  11  134.15   14.16
  -7   3  11  132.01   15.93
   7   3 -11  129.82   13.30
   7  -3 -11  148.13   14.02
   7   3 -10  114.02   11.54
   7  -3 -10   60.74    9.08
   7  -3 -10   76.40    8.05
   7  -3 -10   82.37    9.43
   7   3 -10  103.11   10.36
  -7   3  10   90.46    8.44
  -7   3  10   86.33    9.87
   7   3 -10   76.24   10.45
   7  -3 -10   65.81   10.04
  -7  -3  10   73.31   11.52
  -7   3  10   88.75   12.47
  -7   3  10  109.22   12.42
   7   3 -10   82.21   10.28
   7  -3  -9  153.45   13.75
   7   3  -9  169.85   14.63
   7  -3  -9  155.66   12.28
  -7   3   9  172.03   13.47
  -7   3   9  164.39   11.61
  -7   3   9  170.22   15.59
  -7  -3   9  182.67   16.11
   7   3  -9  146.80   12.61
   7   3  -9  139.50   11.90
   7   3  -9  152.90   13.27
   7  -3  -9  138.41   12.48
   7   3  -8  119.67   10.75
   7  -3  -8  126.61   10.75
  -7   3   8  105.97    9.14
  -7   3   8  106.70   11.98
   7  -3  -8  113.15    9.87
   7   3  -8   84.13   10.04
  -7  -3   8  122.72   12.76
   7   3  -8  104.49    9.66
   7   3  -8   96.63    9.71
   7   3  -7   31.88    2.38
  -7  -3   7   29.40    4.43
  -7   3   7   36.51    5.38
  -7  -3   7   29.07    7.01
   7   3  -7   38.14    6.12
   7  -3  -7   30.66    5.17
   7   3  -7   29.40    4.86
  -7   3   7   52.37    9.03
  -7   3   7   38.82    7.36
   7  -3  -7   46.04    5.95
  -7   3   6  902.81   37.85
  -7  -3   6  894.58   35.78
  -7  -3   6  863.91   40.18
  -7   3   6  937.89   41.67
   7   3  -6  920.05   38.76
   7  -3  -6  849.76   37.96
   7   3  -6  855.06   36.88
   7  -3  -6  910.04   38.18
  -7  -3   6  827.14   40.62
  -7   3   6  852.55   41.05
  -7   3   5  217.70   13.22
  -7  -3   5  211.24   11.85
   7   3  -5  209.17   11.91
   7  -3  -5  232.79   13.33
  -7  -3   5  228.14   15.33
  -7   3   5  224.55   15.24
  -7  -3   5  203.88   14.30
  -7  -3   5  199.29   13.72
  -7   3   5  203.27   14.76
   7   3  -5  214.54   13.14
   7  -3  -5  199.69   12.61
  -7  -3   5  203.38   15.25
  -7   3   5  196.01   14.80
   7   3  -4    2.23    2.16
  -7  -3   4    2.23    3.47
  -7   3   4   -1.09    3.41
   7  -3  -4    2.19    2.21
   7   3  -4    1.90    0.89
  -7   3   4    0.81    2.45
  -7  -3   4    4.56    3.40
  -7  -3   4    6.52    3.30
   7   3  -4    2.03    1.77
  -7   3   4   -1.01    4.01
   7  -3  -4    3.02    2.13
  -7   3   4   -1.07    3.22
  -7  -3   4    3.08    3.84
  -7   3   4    6.03    3.99
   7   3  -4    1.56    1.82
   7  -3  -4    2.30    1.89
  -7  -3   4    6.09    3.89
  -7  -3   3    6.93    3.54
  -7   3   3    3.84    3.18
   7   3  -3    7.19    1.36
  -7  -3   3    4.19    3.53
  -7  -3   3    6.87    2.84
   7   3  -3    1.28    1.38
  -7   3   3    5.84    2.94
  -7   3   3    3.72    3.40
  -7   3   3    3.60    3.51
   7   3  -3    2.15    1.77
   7  -3  -3    5.75    2.24
  -7  -3   3    0.92    3.46
  -7  -3   3    2.18    2.94
  -7  -3   2  127.15   10.10
  -7   3   2  119.20    9.76
   7   3  -2  134.78    6.78
  -7  -3   2  156.45   10.59
  -7   3   2  128.42   10.02
  -7   3   2  135.45   10.47
  -7  -3   2  145.34   11.52
   7  -3  -2  147.16    9.64
   7   3  -2  152.04    9.65
  -7  -3   2  137.47    9.07
  -7  -3   2  144.56    9.02
  -7  -3   1  715.51   31.76
  -7   3   1  757.66   31.97
  -7  -3   1  750.05   27.92
   7   3  -1  753.31   28.18
  -7  -3   1  736.90   28.42
  -7  -3   1  708.09   32.00
  -7   3   1  725.48   32.03
  -7  -3   1  695.32   29.55
   7  -3  -1  623.31   33.29
  -7  -3   1  749.67   32.98
  -7   3   1  777.56   32.54
  -7   3   1  690.44   30.92
  -7  -3   1  685.14   29.07
  -7  -3   0  341.13   15.34
  -7  -3   0  344.88   15.50
   7   3   0  341.78   15.16
   7   3   0  357.82   17.99
  -7  -3   0  325.40   18.52
  -7  -3   0  346.94   15.70
  -7   3   0  358.44   18.13
   7  -3   0  341.60   19.98
  -7  -3   0  324.92   17.88
  -7   3   0  345.91   18.23
  -7  -3   0  325.70   17.01
  -7   3   0  336.96   17.12
  -7  -3   0  362.44   17.90
  -7   3   0  367.23   17.76
  -7  -3   0  332.35   14.72
   7  -3   1  394.67   21.68
  -7  -3  -1  385.84   19.42
  -7   3  -1  415.10   20.69
  -7  -3  -1  413.73   18.22
  -7  -3  -1  420.35   18.33
   7   3   1  395.90   17.70
  -7   3  -1  401.15   19.12
  -7  -3  -1  402.97   19.13
  -7  -3  -1  388.57   19.61
  -7   3  -1  380.35   19.27
  -7  -3  -1  377.72   21.04
   7   3   1  401.55   20.27
  -7  -3  -2  217.73   15.10
   7   3   2  236.09   14.29
  -7  -3  -2  228.78   12.29
   7   3   2  236.84   12.11
   7   3   2  246.13   15.29
   7  -3   2  199.04   14.29
  -7  -3  -2  236.81   13.36
  -7   3  -2  232.36   14.69
  -7  -3  -2  227.65   12.76
  -7   3  -2  238.30   13.69
  -7  -3  -2  214.88   13.43
  -7   3  -2  232.98   12.98
   7   3   3 1785.73   69.39
  -7  -3  -3 1758.35   70.71
  -7  -3  -3 1767.11   66.76
   7   3   3 1725.50   66.38
  -7  -3  -3 1726.09   67.55
   7   3   3 1722.28   69.41
   7  -3   3 1800.88   70.04
  -7   3  -3 1794.09   70.23
  -7   3  -3 1692.46   68.18
  -7  -3  -3 1757.99   68.61
   7   3   4 1041.26   45.03
  -7  -3  -4 1011.44   46.47
   7   3   4 1054.91   42.48
  -7  -3  -4 1043.08   42.72
   7  -3   4 1033.50   45.37
   7   3   4 1070.89   44.63
  -7  -3  -4 1054.82   43.98
  -7   3  -4 1021.94   46.23
  -7   3  -4 1035.30   44.66
  -7  -3  -4 1067.66   45.12
   7   3   4 1061.42   44.27
   7  -3   4 1120.27   44.65
  -7  -3  -5  255.22   17.28
  -7   3  -5  285.98   17.59
   7   3   5  265.61   16.04
   7  -3   5  282.62   16.41
  -7  -3  -5  292.77   15.58
   7   3   5  272.27   15.02
  -7  -3  -5  291.90   19.03
   7   3   5  296.29   17.67
   7  -3   5  282.13   17.28
   7   3   5  273.82   16.04
  -7  -3  -5  282.08   16.89
  -7   3  -5  266.28   18.83
  -7  -3  -5  250.60   13.71
  -7  -3  -6  134.93   13.56
  -7   3  -6  139.73   13.22
  -7  -3  -6  171.17   15.20
   7   3   6  144.02   12.04
  -7  -3  -6  166.21   11.14
   7   3   6  129.43   10.03
   7   3   6  163.60   11.50
   7  -3   6  160.40   12.79
  -7  -3  -6  143.22   12.79
  -7   3  -6  144.28   14.44
   7   3   6  151.77   11.59
   7  -3   6  157.50   11.81
  -7  -3  -7  204.99   17.52
   7   3   7  228.53   15.95
  -7  -3  -7  225.34   14.23
   7  -3   7  259.43   17.03
   7   3   7  209.62   14.19
  -7  -3  -7  242.66   17.74
  -7   3  -7  195.39   18.88
   7   3   7  220.70   14.98
  -7  -3  -7  209.88   17.87
  -7   3  -7  236.35   18.23
   7  -3   7  239.69   15.51
  -7  -3  -8   -8.35   10.33
  -7   3  -8    1.62    9.54
  -7   3  -8    1.48    3.37
   7   3   8    2.55    5.26
  -7  -3  -8    2.91    3.55
  -7  -3  -8    1.58    8.64
  -7  -3  -8   -9.32    9.84
  -7   3  -8  -13.31   10.79
   7   3   8    9.30    4.26
   7  -3   8   -1.39    5.63
   7   3   8   -3.53    5.11
   7  -3   8    1.17    4.16
  -7  -3  -9   -7.53   11.84
  -7   3  -9   -1.83    9.79
  -7   3  -9    3.89    4.11
   7   3   9    5.34    6.24
  -7  -3  -9    2.08    3.72
  -7  -3  -9  -13.41   10.29
  -7   3  -9  -10.51   13.31
  -7  -3  -9  -10.55   10.97
   7   3   9   -1.13    4.48
   7  -3   9   -1.51    6.77
   7   3   9   -1.29    6.02
   7  -3   9   -2.54    5.42
  -7  -3 -10  206.83   21.54
   7   3  10  232.62   17.24
  -7  -3 -10  204.15   14.68
  -7  -3 -10  208.47   19.97
   7   3  10  214.20   15.60
  -7  -3 -10  227.88   22.17
   7  -3  10  183.65   16.86
  -7   3 -10  207.57   22.46
   7   3  10  224.35   16.91
  -7   3 -10  236.60   22.37
   7  -3  10  213.99   16.46
  -7  -3 -11   23.50   13.99
  -7   3 -11   34.41   13.78
  -7  -3 -11   32.94    6.52
  -7  -3 -11   38.42    8.23
   7   3  11   31.87    8.52
  -7   3 -11   30.06   14.91
  -7  -3 -11   58.39   16.29
   7   3  11   24.21    6.80
   7  -3  11   22.96    8.56
   7   3  11   36.53    8.46
   7  -3  11   38.94    8.41
  -7  -3 -11   29.73   11.82
   7   3  12   87.10   11.17
   7   3  12   77.73   10.91
   7  -3  12   32.23    9.68
   7   3  12   50.92    9.71
   7  -3  12   56.55   10.28
  -7  -3 -12   52.79   14.52
   7   3  13   98.87   12.45
   7  -3  13  118.25   13.69
   7   3  13  100.95   12.40
   7   3  13   96.67   12.01
   7  -3  13  105.04   14.96
   7   3  14    5.66    6.74
   7  -3  14   20.46    7.94
   7   3  14   14.34    7.03
   7   3  14   -1.70    6.63
   7  -3  14    2.15    7.49
   7   3  15   14.03    7.49
   7  -3  15   -3.96    6.18
   7   3  15    8.18    7.65
   7  -3  15    2.27    7.52
   7   3  15    1.81    6.33
   7  -3  16   10.47    8.00
   7   3  16   21.14    9.89
   7   3  16   20.02    7.92
   7  -3  16    7.18    8.14
   7   3  16    3.85    7.35
   7  -3  17   26.43   10.03
   7   3  17   53.25   12.12
   7   3  17   64.44   10.65
   7  -3  17   72.70   14.34
   7   3  17   60.74   11.95
   7  -3  18   10.46   11.17
   7  -3  18    9.23    9.35
   7   3  18   18.53    9.73
   7  -3  19    2.72    9.93
   7   3  19   -2.41    9.00
   7  -3  19    9.62    9.18
   7  -3  20   19.66   10.95
   7   3  20    9.97    9.12
   7  -3  20   -2.49    8.91
   7  -3  21    2.89   10.08
   7  -3  21   -2.58    9.20
   7   3  21    5.14    9.81
  -7  -4  22   27.81   20.76
  -7   4  22   20.23   12.88
   7   4 -22   13.58   11.24
   7  -4 -22   10.04   10.77
  -7  -4  21   13.55   17.95
   7   4 -21   -3.26   10.49
   7  -4 -21   12.92    9.75
  -7   4  21    3.24   10.73
   7   4 -20   43.75   12.95
   7  -4 -20   31.02   11.67
  -7  -4  20   69.85   22.35
  -7   4  20   24.99   12.71
   7   4 -19    2.97    8.98
   7  -4 -19    8.89    9.81
  -7   4  19    8.96   11.17
   7   4 -18   61.97   14.21
   7  -4 -18   45.12   13.88
  -7   4  18   71.19   15.19
   7   4 -17   37.13   11.91
   7  -4 -17   32.01   10.84
  -7   4  17   13.46    9.18
   7   4 -16   -4.98    9.10
   7  -4 -16   -7.53    9.58
  -7   4  16   -2.53    8.61
  -7   4  16    2.82    4.39
   7   4 -15   65.04   12.57
   7  -4 -15   63.34   13.33
  -7   4  15   50.60   10.00
  -7   4  15   70.56    9.25
  -7   4  15   37.85   10.46
   7   4 -14    4.32    6.74
   7  -4 -14    6.55    7.21
  -7   4  14   -1.31    3.96
  -7   4  14   -5.39    6.41
  -7   4  14   -6.62    8.59
   7  -4 -14    1.20    3.98
   7  -4 -13  186.54   13.85
  -7   4  13  160.84   15.63
  -7   4  13  186.30   14.01
   7   4 -13  156.06   16.54
   7  -4 -13  137.13   16.13
   7   4 -13  154.20   15.42
   7  -4 -13  157.32   15.48
  -7   4  13  184.49   17.78
   7   4 -13  141.09   15.18
   7  -4 -12   10.09    4.94
  -7   4  12    1.63    5.55
  -7   4  12   12.20    4.94
   7   4 -12   -5.54    7.19
   7  -4 -12   -3.70    7.64
   7   4 -12    2.85    5.76
   7  -4 -12    1.41    4.52
   7   4 -12    4.63    6.59
  -7   4  12   -1.90    6.63
   7   4 -12   -3.19    6.09
   7  -4 -12   -4.80    6.36
   7   4 -11   -1.48    5.87
   7  -4 -11   -1.47    5.27
   7  -4 -11    3.25    4.04
  -7   4  11    1.18    3.57
  -7   4  11    1.56    4.71
   7   4 -11    2.60    4.87
   7  -4 -11    9.16    5.00
   7  -4 -11   -1.69    6.85
  -7   4  11    8.60    8.38
   7   4 -11   -1.44    5.73
  -7   4  11   -1.77    5.84
   7   4 -10    1.36    4.50
   7  -4 -10   -2.69    4.32
  -7   4  10   -1.15    3.82
   7   4 -10   -1.19    4.71
   7  -4 -10    2.43    3.42
  -7   4  10    1.49    5.20
   7  -4 -10    1.53    6.31
   7   4 -10    1.55    5.27
   7   4 -10    2.67    5.30
  -7   4  10    3.97    6.75
  -7   4   9  519.59   26.20
  -7   4   9  495.50   30.04
   7   4  -9  474.49   26.43
   7   4  -9  470.16   25.08
   7   4  -9  517.41   26.83
   7  -4  -9  496.78   26.36
   7  -4  -9  503.50   25.85
   7   4  -9  469.37   27.05
   7  -4  -9  486.86   27.22
  -7   4   8   -1.08    3.45
  -7  -4   8    3.00    6.18
   7   4  -8    4.42    4.72
   7   4  -8   -1.12    3.03
   7  -4  -8    1.08    3.16
  -7   4   8   -1.65    4.63
   7  -4  -8   -1.03    3.22
   7   4  -8   -3.74    4.43
  -7   4   7  491.78   24.60
   7  -4  -7  494.28   24.22
   7   4  -7  474.69   23.03
  -7  -4   7  438.97   26.04
   7   4  -7  456.03   24.21
  -7   4   7  485.24   27.54
   7   4  -7  465.23   24.24
   7  -4  -7  509.78   24.45
  -7   4   6  345.04   19.67
   7   4  -6  368.21   15.12
  -7  -4   6  339.94   17.78
   7  -4  -6  377.12   19.28
  -7  -4   6  336.93   21.80
  -7   4   6  374.73   22.42
   7   4  -6  376.20   18.12
  -7   4   6  367.73   20.41
   7   4  -6  333.18   18.86
  -7   4   6  321.36   21.18
  -7  -4   6  337.88   20.84
   7   4  -6  367.88   19.31
   7  -4  -6  380.49   19.20
  -7  -4   5  182.31   13.69
  -7   4   5  200.09   14.63
   7   4  -5  178.21    8.90
  -7  -4   5  194.85   12.20
  -7   4   5  191.35   13.17
  -7  -4   5  188.72   14.38
   7   4  -5  185.61   10.62
  -7   4   5  199.63   14.63
   7  -4  -5  212.55   12.77
  -7   4   5  188.12   13.38
   7  -4  -5  185.63   12.07
   7   4  -5  191.76   12.29
   7   4  -5  191.96   12.06
   7  -4  -5  214.29   12.38
  -7   4   5  181.23   14.50
  -7  -4   4 1378.89   57.52
  -7   4   4 1324.72   56.97
   7   4  -4 1378.09   50.79
  -7  -4   4 1358.86   54.77
  -7   4   4 1422.95   56.57
  -7   4   4 1398.07   57.48
   7   4  -4 1365.50   51.78
  -7   4   4 1408.39   56.87
  -7  -4   4 1387.31   56.96
  -7   4   4 1309.07   55.74
   7   4  -4 1366.06   54.35
   7  -4  -4 1397.63   54.50
  -7  -4   4 1323.53   55.16
  -7  -4   3    3.59    3.71
  -7  -4   3    2.61    3.18
   7   4  -3    0.35    1.59
  -7   4   3   -1.05    2.94
  -7  -4   3    0.86    3.80
  -7   4   3    0.89    3.62
  -7  -4   3   -2.85    3.84
   7   4  -3    1.41    2.20
  -7   4   3   -0.92    4.01
   7  -4  -3   -0.71    2.08
  -7  -4   3   -1.02    3.47
  -7   4   3    0.99    3.00
  -7  -4   2  810.24   34.92
  -7   4   2  783.04   34.42
   7   4  -2  754.61   30.49
   7   4  -2  820.16   33.80
  -7  -4   2  785.78   34.98
  -7   4   2  743.94   34.66
  -7  -4   2  780.48   35.66
  -7   4   2  828.13   34.55
  -7  -4   2  711.26   31.46
   7   4  -2  773.31   32.78
   7  -4  -2  854.35   33.58
   7   4  -1    5.81    2.01
   7   4  -1    6.51    3.42
  -7  -4   1    3.38    1.97
  -7   4   1    1.81    2.82
  -7  -4   1    4.45    2.09
  -7  -4   1    7.05    4.72
  -7  -4   1    4.39    3.69
  -7   4   1    9.16    3.73
  -7  -4   1    7.48    3.11
  -7   4   1    7.18    3.11
  -7   4   0   18.83    3.85
  -7  -4   0   24.90    4.07
   7   4   0   24.82    3.50
   7   4   0   36.93    5.50
  -7  -4   0   17.67    3.18
  -7   4   0   21.78    4.22
  -7  -4   0   21.84    3.00
   7  -4   0   26.07    5.97
  -7  -4   0   31.60    6.90
  -7  -4   0   32.65    5.14
  -7   4   0   31.61    5.43
  -7   4   0   18.19    3.70
  -7  -4   0   26.87    4.64
  -7   4   0   32.29    4.80
  -7  -4   0   25.84    4.26
   7   4   1 1359.46   50.99
  -7  -4  -1 1305.94   50.66
  -7  -4  -1 1295.87   51.14
  -7  -4  -1 1336.81   55.87
   7   4   1 1309.03   53.88
  -7  -4  -1 1275.55   49.02
   7  -4   1 1322.73   55.38
  -7  -4  -1 1262.60   51.53
  -7   4  -1 1341.74   53.87
  -7   4  -1 1315.50   51.63
  -7  -4  -1 1353.64   51.86
  -7   4  -1 1324.65   52.14
  -7  -4  -1 1326.80   52.30
  -7  -4  -2  294.24   15.59
   7   4   2  307.47   15.55
  -7  -4  -2  313.59   15.94
   7  -4   2  279.92   17.81
  -7  -4  -2  302.53   15.67
   7   4   2  309.88   18.00
  -7  -4  -2  338.76   20.56
  -7   4  -2  304.44   18.02
  -7  -4  -2  308.43   16.68
  -7   4  -2  292.46   15.57
  -7   4  -2  303.42   16.47
  -7  -4  -2  301.71   15.64
  -7  -4  -3   -2.22    3.47
   7   4   3    4.22    2.80
  -7  -4  -3    2.69    6.97
   7   4   3    1.01    3.69
  -7  -4  -3   -1.48    2.95
   7   4   3   -3.28    4.59
  -7   4  -3    5.63    4.97
   7  -4   3    5.31    3.70
  -7  -4  -3    0.72    3.62
  -7   4  -3    0.86    3.54
  -7  -4  -3   -0.89    3.87
  -7  -4  -4  131.01   10.21
  -7  -4  -4  139.53   10.41
   7   4   4  153.40   10.32
   7  -4   4  149.62   11.94
   7   4   4  143.11   11.20
   7   4   4  131.64   11.82
  -7  -4  -4  152.28   14.46
  -7  -4  -4  124.99   10.13
  -7   4  -4  118.53   12.32
  -7  -4  -4  161.00   12.18
  -7   4  -4  127.44   11.02
  -7  -4  -5  400.43   20.92
   7   4   5  377.84   19.88
  -7  -4  -5  410.15   20.63
   7   4   5  401.03   22.74
   7   4   5  360.82   20.31
   7  -4   5  379.24   21.92
  -7  -4  -5  386.64   24.97
  -7  -4  -5  393.18   21.28
  -7   4  -5  377.74   23.86
  -7  -4  -5  374.07   22.35
  -7   4  -5  432.08   23.14
   7   4   5  375.55   20.48
   7  -4   5  422.80   21.17
  -7  -4  -6   13.23    4.93
   7   4   6   19.06    4.46
  -7  -4  -6   19.70    4.61
   7   4   6   15.73    6.16
  -7   4  -6   15.65    7.70
  -7  -4  -6   21.55    8.16
  -7  -4  -6   19.42    9.71
   7   4   6   17.25    4.74
   7  -4   6   20.69    6.03
  -7  -4  -6   11.42    5.80
  -7   4  -6   19.53    9.34
   7   4   6   19.71    5.02
   7  -4   6   23.59    5.29
  -7  -4  -7  475.98   25.80
  -7  -4  -7  532.92   25.90
   7   4   7  511.29   25.22
   7   4   7  577.75   29.05
  -7  -4  -7  491.82   30.55
   7  -4   7  497.03   27.27
   7   4   7  487.52   24.74
  -7   4  -7  477.27   31.04
  -7   4  -7  496.50   29.22
  -7  -4  -7  454.11   28.75
   7  -4   7  531.67   26.10
   7   4   7  521.97   26.06
   7   4   8   -3.12    3.63
  -7  -4  -8    3.59    5.43
  -7  -4  -8    1.06    3.68
   7   4   8    1.45    6.18
  -7  -4  -8    1.73    9.90
  -7   4  -8   -3.36    9.54
  -7  -4  -8   -7.16   10.25
   7   4   8   -1.93    4.13
  -7   4  -8    8.07   11.01
   7  -4   8   -5.67    5.95
   7   4   8   -2.30    5.52
   7  -4   8   -3.41    4.60
  -7  -4  -9  244.81   16.84
  -7  -4  -9  197.53   14.73
   7   4   9  222.66   15.32
   7   4   9  219.07   17.58
  -7  -4  -9  182.42   19.67
   7   4   9  197.39   14.22
   7  -4   9  270.70   19.16
  -7   4  -9  190.87   21.56
   7  -4   9  209.46   15.78
  -7  -4  -9  231.78   21.42
  -7   4  -9  233.49   21.16
   7   4   9  239.49   16.64
   7   4  10   38.70    6.76
  -7  -4 -10   34.17    7.99
  -7  -4 -10   42.26    7.13
   7   4  10   29.87    8.57
  -7  -4 -10   37.03   13.94
  -7   4 -10   57.45   15.51
  -7  -4 -10   27.64   13.02
  -7   4 -10   29.02   15.12
   7   4  10   27.01    6.55
   7  -4  10   38.27    8.88
   7  -4  10   45.52    8.36
   7   4  10   17.74    6.75
  -7  -4 -11   17.41    7.09
   7   4  11   19.56    7.76
   7   4  11   25.15    7.50
   7  -4  11   14.49    7.08
   7   4  11   24.46    6.36
   7  -4  11    5.37    7.92
  -7  -4 -11   29.08   15.93
  -7   4 -11   37.99   16.77
   7   4  12  415.98   25.39
   7  -4  12  446.58   29.58
   7   4  12  515.16   28.49
   7  -4  12  476.81   27.82
   7   4  12  477.14   28.71
   7  -4  13   65.39   12.54
   7   4  13   63.32   10.57
   7  -4  13   57.11   10.22
   7   4  13   72.99   11.55
   7  -4  14   30.38    9.32
   7   4  14   42.02    9.29
   7  -4  14   23.36    7.74
   7   4  14   28.48    8.73
   7  -4  15   -4.58    8.56
   7  -4  15   -3.83    7.62
   7   4  15    9.71    7.26
   7   4  15   -3.65    7.79
   7  -4  16   24.13   10.51
   7   4  16   28.67   10.13
   7  -4  16   30.39    9.65
   7   4  16   18.56    8.23
   7  -4  17    2.53    9.24
   7  -4  17    2.14    7.82
   7   4  17    2.15    7.32
   7   4  17   -1.88    8.56
   7  -4  18  118.55   17.40
   7   4  18  155.12   17.72
   7  -4  18  100.87   15.16
   7   4  18  101.01   14.04
   7  -4  19    8.20    9.76
   7  -4  19    2.34    8.35
   7   4  19    9.34    9.28
   7  -4  20   -2.82    9.59
   7  -4  20    7.28    8.87
   7   4  20    7.24   10.31
   7   4  21    7.46    8.67
   7  -4  21    7.51    9.37
  -7   5  22    3.32   12.14
  -7   5  21   19.31   12.30
  -7  -5  21   17.90   18.80
  -7   5  20   12.38   10.81
   7   5 -20   38.43   12.85
  -7  -5  20    8.70   17.31
  -7  -5  19   42.00   20.46
  -7   5  19   26.74   11.38
   7   5 -19   19.66    9.83
  -7   5  18   22.61   11.06
  -7   5  18   54.64   17.56
   7   5 -18   26.57   10.20
  -7   5  17   76.84   10.78
  -7   5  17   64.15   13.55
   7   5 -17   60.04   13.01
  -7   5  16  136.79   13.81
  -7   5  16  138.44   15.86
  -7   5  16  120.92   16.74
   7   5 -16  135.90   17.09
  -7   5  15   21.10    6.46
  -7   5  15   36.42    9.48
  -7   5  15   28.32    9.21
   7  -5 -15   22.35    9.56
  -7   5  14   34.97    9.16
  -7   5  14   35.03    7.63
  -7   5  14   39.75    9.95
   7  -5 -14   37.31    9.49
   7   5 -14   20.30    8.60
  -7   5  13    2.85    4.72
  -7   5  13    1.86    6.49
   7   5 -13   -1.88    6.04
   7  -5 -13   -3.82    6.98
  -7   5  13    2.06    6.82
  -7   5  12  106.43   11.12
  -7   5  12  109.18   13.15
   7   5 -12   81.36   11.71
   7  -5 -12   90.80   12.26
   7   5 -12  114.39   12.61
  -7   5  12  138.63   14.62
  -7   5  11   48.80    7.85
  -7   5  11   61.84   10.23
   7  -5 -11   67.19    8.59
   7  -5 -11   30.19    8.09
   7   5 -11   44.51    8.37
  -7   5  11   35.42   10.33
   7   5 -11   69.94   10.49
  -7   5  11   21.62    7.85
  -7   5  10   -3.31    5.92
  -7   5  10   -1.35    4.34
   7   5 -10   -3.81    5.51
   7   5 -10   -2.76    5.49
  -7   5  10   -2.05    7.34
   7  -5 -10   -1.18    3.20
  -7   5   9   56.89    8.10
   7   5  -9   56.63    7.88
  -7   5   9   54.59    9.92
   7   5  -9   55.88    8.67
   7  -5  -9   52.65    7.16
  -7   5   8  213.96   15.12
   7  -5  -8  219.20   14.15
   7   5  -8  190.63   13.79
  -7   5   8  220.88   17.87
   7   5  -8  162.39   13.84
  -7   5   7  387.20   22.46
   7  -5  -7  403.94   21.07
  -7   5   7  374.80   21.59
   7   5  -7  423.01   21.43
  -7   5   7  404.52   24.90
  -7   5   6  667.47   33.54
  -7   5   6  636.01   31.42
   7  -5  -6  688.28   29.85
  -7   5   6  621.12   30.24
   7   5  -6  619.15   28.74
   7   5  -6  579.44   28.85
   7  -5  -6  638.05   28.98
  -7   5   5  154.74   12.21
  -7  -5   5  125.12   12.33
  -7   5   5  127.17   12.06
   7  -5  -5  129.69    9.94
  -7   5   5  135.52   10.91
  -7   5   5  130.74   12.19
   7   5  -5  112.15    9.20
   7  -5  -5  133.36    9.68
   7   5  -4   40.55    4.36
  -7   5   4   47.92    6.86
  -7   5   4   45.58    7.19
  -7  -5   4   47.88    7.55
  -7   5   4   63.08    8.11
  -7   5   4   41.05    6.42
  -7  -5   4   41.41    7.90
   7   5  -4   42.19    5.04
   7  -5  -4   40.69    4.88
  -7  -5   4   45.89    6.97
  -7   5   4   37.59    6.78
   7  -5  -3   25.34    4.18
   7   5  -3   28.12    4.08
  -7   5   3   31.74    6.01
   7   5  -3   29.97    3.98
   7   5  -3   34.64    5.22
  -7   5   3   24.88    5.46
  -7  -5   3   23.34    5.34
  -7   5   3   26.97    5.48
  -7  -5   3   24.92    7.23
  -7   5   3   31.23    5.37
  -7  -5   3   23.10    5.33
  -7   5   3   22.76    5.31
   7   5  -2  613.57   28.63
  -7  -5   2  652.70   31.55
  -7   5   2  640.86   28.98
  -7   5   2  606.77   29.80
  -7  -5   2  594.68   28.60
  -7  -5   2  598.67   29.49
  -7   5   2  642.52   28.93
  -7  -5   2  616.52   29.20
  -7   5   2  622.74   29.11
   7   5  -2  634.26   26.41
   7   5  -1  277.11   14.31
  -7  -5   1  248.89   18.43
   7   5  -1  307.33   17.02
  -7   5   1  290.43   17.04
  -7   5   1  293.54   16.47
  -7  -5   1  277.49   15.33
  -7   5   1  301.37   15.35
  -7  -5   1  270.56   15.94
  -7   5   1  264.29   15.69
  -7  -5   0 1568.56   61.99
  -7   5   0 1548.81   61.65
   7   5   0 1581.03   60.80
   7   5   0 1627.82   63.99
  -7  -5   0 1568.40   61.12
  -7   5   0 1467.50   62.87
  -7  -5   0 1642.77   67.04
   7  -5   0 1491.87   65.35
  -7   5   0 1658.29   63.51
  -7  -5   0 1610.89   61.55
  -7   5   0 1623.88   61.28
  -7  -5  -1    6.12    3.12
   7   5   1    4.86    2.62
   7   5   1   14.16    5.38
  -7  -5  -1   17.32    3.79
  -7   5  -1   11.30    3.46
  -7  -5  -1   23.95    8.86
   7  -5   1   17.90    5.51
  -7   5  -1   12.99    5.41
  -7   5  -1    9.30    2.72
  -7   5  -1   15.61    4.08
  -7  -5  -1   14.08    4.14
  -7  -5  -1   10.24    2.99
   7   5   2   -0.75    2.88
   7   5   2    1.17    4.91
  -7  -5  -2    0.78    2.50
  -7  -5  -2    7.46    9.08
   7  -5   2    3.44    3.79
  -7   5  -2   11.11    5.87
  -7  -5  -2    2.45    3.87
  -7   5  -2    1.57    3.87
  -7  -5  -2    1.34    2.22
  -7   5  -2    1.34    1.81
   7   5   3    1.63    2.92
   7   5   3   -3.74    5.32
  -7  -5  -3    5.87    3.14
  -7   5  -3    7.16    4.78
  -7  -5  -3   13.02    5.02
  -7  -5  -3    7.87    8.59
   7  -5   3    2.24    4.01
  -7   5  -3    2.49    5.74
  -7  -5  -3    3.37    2.24
  -7   5  -3    2.81    2.39
  -7  -5  -4    9.00    3.80
   7   5   4   14.64    6.40
  -7  -5  -4    5.35    5.48
  -7   5  -4    7.26    6.27
   7   5   4   20.22    5.24
  -7  -5  -4    8.30    9.07
   7  -5   4   10.18    4.84
  -7   5  -4   15.45    7.02
   7   5   4   10.59    3.73
  -7  -5  -4   10.81    4.17
  -7  -5  -5   30.97    5.46
  -7   5  -5   32.23    8.32
   7   5   5   31.43    6.38
   7   5   5   19.65    6.97
  -7  -5  -5   24.43   10.66
   7  -5   5   23.58    5.81
  -7   5  -5   23.73    9.59
  -7  -5  -5   19.76    5.30
   7   5   5   24.70    5.05
  -7  -5  -6   31.12    6.65
   7   5   6   38.36    6.01
  -7  -5  -6   23.89    5.63
  -7   5  -6   19.10    9.07
   7   5   6   29.63    8.14
  -7  -5  -6   27.44   11.18
  -7   5  -6   22.93   10.24
   7  -5   6   39.95    7.78
   7  -5   6   23.60    5.45
   7   5   6   18.77    5.08
  -7  -5  -7   43.93    7.31
   7   5   7   33.27    6.09
  -7  -5  -7   31.92    6.19
  -7   5  -7   45.07   11.17
   7   5   7   29.46    8.02
  -7  -5  -7   30.72   12.49
  -7   5  -7   35.27   12.18
   7  -5   7   38.75    7.32
   7   5   7   36.49    6.51
   7  -5   7   28.91    6.04
  -7  -5  -8   38.44    7.50
   7   5   8   48.97    7.35
  -7  -5  -8   48.07    7.40
  -7   5  -8   37.03   12.60
   7   5   8   47.13    9.92
  -7  -5  -8   50.27   13.83
   7  -5   8   35.88    8.27
  -7   5  -8   49.56   15.18
   7   5   8   34.69    7.13
   7  -5   8   36.39    6.54
  -7  -5  -9   21.08    5.91
   7   5   9   26.55    5.60
  -7  -5  -9   10.57    5.39
   7  -5   9   10.83    6.52
  -7   5  -9   23.50   13.72
   7   5   9   16.95    5.93
   7  -5   9   19.02    6.38
   7   5   9   25.37    9.53
   7   5  10   38.05    7.47
  -7  -5 -10   30.84    7.32
  -7   5 -10   22.83   15.60
   7  -5  10   18.36    7.76
   7   5  10   20.98    6.70
   7  -5  10   33.40    7.56
   7   5  10   42.09    9.91
   7   5  11   22.58    6.10
   7  -5  11   35.94    8.79
   7   5  11   28.36    7.63
   7  -5  11   18.05    6.82
   7   5  11   34.47    9.32
   7   5  12    4.17    4.85
   7  -5  12   -5.77    7.18
   7   5  12    1.53    5.46
   7  -5  12    3.00    5.60
   7   5  12    3.73    7.26
   7   5  13    1.45    4.52
   7   5  13    1.92    6.85
   7   5  13    4.91    6.75
   7  -5  13    6.43    6.38
   7  -5  13   -2.05    6.58
   7   5  14   37.22    9.71
   7  -5  14   73.88   10.95
   7   5  14   52.36   10.07
   7  -5  14   49.89   11.61
   7   5  15   55.55   10.98
   7   5  15   76.15   13.20
   7  -5  15   84.77   13.70
   7   5  16   44.86   10.32
   7   5  16   58.98   11.54
   7  -5  16   31.31   11.06
   7   5  17    8.20    7.32
   7  -5  17    2.52    9.01
   7   5  17   -4.12    8.65
   7  -5  18   -2.63    9.17
   7   5  18   -4.17    9.04
   7  -5  19   -5.45   10.41
   7   5  19   -2.11    7.53
   7  -5  20    2.81   10.05
  -7  -6  21   39.52   21.42
  -7  -6  20   12.85   19.19
  -7  -6  19   79.16   23.11
  -7   6  19   73.78   18.67
  -7   6  18    7.13    6.67
  -7  -6  18   16.08   18.27
  -7   6  18   -2.81    8.48
  -7   6  18   -3.39   14.22
  -7  -6  17   34.76   18.80
  -7   6  17   15.96    9.74
  -7   6  17   11.55    7.86
  -7   6  17   12.15    6.36
  -7   6  16   12.54    8.52
  -7   6  16    8.97    6.99
  -7   6  16    3.39    5.44
  -7   6  15    9.45    7.37
  -7   6  15    4.33    7.37
  -7   6  15   11.55    6.43
  -7   6  14   22.20   10.43
  -7   6  14   25.93    7.64
  -7   6  14   39.69   10.34
  -7   6  13    1.58    4.77
  -7   6  13   -2.08    7.26
  -7   6  13   10.07    6.28
  -7   6  12   64.93    9.38
  -7   6  12   52.83   10.37
  -7   6  12   83.73   12.17
  -7   6  11   23.00    6.24
  -7   6  11    6.85    7.57
  -7   6  11   22.56    7.64
  -7   6  10   64.38    9.19
  -7   6  10   51.03    9.76
  -7   6  10   70.16   12.47
   7  -6  -9   -1.07    3.43
  -7   6   9    1.46    4.54
  -7   6   9   -1.96    6.83
   7  -6  -8  315.05   18.37
  -7   6   8  320.19   20.85
  -7   6   8  316.67   22.90
  -7   6   7   -1.38    4.93
   7  -6  -7    0.96    2.99
  -7   6   6   12.27    5.11
  -7   6   6    7.63    5.59
  -7   6   5  686.79   35.51
  -7   6   5  773.04   36.76
   7   6  -4    5.70    3.87
  -7   6   4    9.46    5.38
  -7   6   4    9.11    4.97
   7   6  -3 1319.28   54.41
  -7   6   3 1319.68   57.70
  -7   6   3 1364.78   56.87
   7   6  -2   46.86    7.04
   7   6  -2   59.37    6.11
  -7   6   2   36.23    6.75
  -7  -6   2   35.78   10.02
  -7  -6   1  161.85   16.08
  -7   6   1  158.04   12.21
   7   6  -1  151.01   12.37
   7   6  -1  148.47   10.38
  -7  -6   0  231.59   19.48
   7  -6   0  233.30   16.94
  -7   6   0  246.92   15.65
   7   6   0  266.48   17.15
   7   6   0  256.07   14.54
   7  -6   1   70.35    9.29
  -7  -6  -1   52.09   12.04
  -7   6  -1   69.07    7.53
   7   6   1   58.05    8.84
   7   6   1   61.26    6.78
   7  -6   2  160.67   12.64
  -7  -6  -2  114.77   15.55
   7   6   2  103.98   11.61
  -7   6  -2  120.29   12.28
   7   6   2  126.25    9.99
   7  -6   3  277.97   18.36
  -7  -6  -3  298.79   23.65
  -7  -6  -3  268.49   16.62
   7   6   3  310.53   20.15
  -7   6  -3  295.66   20.17
   7   6   3  278.29   16.55
   7   6   4   -1.49    5.91
  -7  -6  -4   -5.67   11.02
  -7  -6  -4    3.03    3.86
   7  -6   4    2.38    5.00
  -7   6  -4  -10.89    9.93
   7   6   4   -1.00    3.31
   7  -6   5  236.85   16.34
  -7  -6  -5  209.61   21.31
  -7  -6  -5  186.27   14.12
   7   6   5  229.72   18.20
  -7   6  -5  208.06   19.59
   7   6   5  217.24   14.52
   7   6   6   98.54   13.05
   7  -6   6  130.52   12.10
  -7  -6  -6  122.11   17.59
  -7  -6  -6  132.51   11.65
  -7   6  -6  112.91   16.48
   7   6   6  123.06   11.07
   7   6   7    5.14    7.79
  -7  -6  -7    8.32    4.73
   7  -6   7    2.71    5.18
  -7   6  -7    8.40   13.10
   7   6   7    8.31    4.34
   7   6   8   14.27    8.34
  -7  -6  -8    3.72    4.22
   7  -6   8    2.90    5.53
  -7   6  -8    2.29   12.73
   7   6   8    8.74    5.33
   7  -6   9  187.46   16.56
   7   6   9  207.18   18.87
   7   6   9  258.96   17.17
  -7   6  -9  204.86   23.82
   7   6  10  179.95   17.53
   7   6  10  161.56   14.01
   7  -6  10  144.53   14.68
   7   6  11  128.39   15.98
   7   6  11  173.48   14.36
   7  -6  11  165.17   16.19
   7   6  12   -2.03    7.60
   7   6  12    8.94    5.69
   7  -6  12    1.90    6.80
   7   6  13  143.46   17.03
   7   6  13  128.17   13.68
   7  -6  13  135.79   15.94
   7   6  14   10.65    8.47
   7   6  14   17.61    6.37
   7  -6  14    2.14    8.01
   7  -6  15    6.79    7.48
   7   6  15    2.17    8.27
   7  -6  16   -2.38    8.90
   7   6  16    8.83    8.43
   7  -6  17   64.73   13.37
   7   6  17   71.42   13.00
   7  -6  18    7.77   10.30
   7   6  18   -2.25    7.84
   7  -6  19   67.12   14.39
   7   6  19   67.96   13.88
  -7   7  19    7.03   17.32
  -7   7  18   15.30    7.46
  -7   7  18    3.53   15.31
  -7   7  17   51.32   11.69
  -7   7  17   42.95    9.22
  -7   7  17   38.97   17.09
  -7   7  16    4.76    7.66
  -7   7  16    9.15    6.06
  -7   7  15   13.85    7.65
  -7   7  15   14.36    6.27
  -7   7  14   82.89   11.27
  -7   7  14   80.54   13.23
  -7   7  14   78.25   12.64
  -7   7  13   -1.73    5.22
  -7   7  13   -6.33    7.36
  -7   7  13   -2.17    6.97
  -7   7  12  301.13   23.33
  -7   7  12  244.07   21.72
  -7   7  12  294.58   21.25
  -7   7  11    3.41    5.31
  -7   7  11    2.34    8.17
  -7   7  11    4.09    6.37
  -7   7  10  191.60   19.06
  -7   7  10  177.16   17.41
  -7   7  10  143.13   14.64
  -7   7   9    1.62    4.54
  -7   7   9    6.14    6.58
  -7   7   8   11.06    4.95
  -7   7   8   18.95    7.69
  -7   7   7  220.22   17.34
  -7   7   7  227.95   19.07
  -7   7   6    6.49    5.80
  -7   7   6    6.17    4.81
  -7   7   5  113.63   12.19
  -7   7   5  120.91   12.44
  -7   7   4   18.13    5.80
  -7   7   4   29.13    7.11
  -7   7   3   41.69    7.50
  -7   7   3   65.99    9.38
   7   7  -3   61.47    7.77
  -7   7   2   58.61    8.21
  -7   7   2   61.64    9.44
   7   7  -2   52.89    8.26
  -7   7   1  402.47   22.50
   7   7  -1  398.47   23.15
  -7  -7   0   62.72   13.60
  -7   7   0   47.20    7.10
   7   7   0   65.45    7.34
   7   7   0   44.97    8.59
  -7  -7  -1   75.33   15.01
  -7   7  -1   67.83    7.85
   7   7   1   77.11    8.17
   7   7   1   53.73    9.54
  -7  -7  -2   63.21   14.44
   7   7   2   58.57    9.80
  -7   7  -2   30.79    5.51
   7   7   2   50.69    6.77
   7   7   3   14.04    4.62
   7   7   3    1.55    6.85
  -7  -7  -3   16.54   13.29
   7   7   4   64.45    7.96
   7   7   4   80.10   11.86
   7   7   5   96.40    9.92
   7   7   5   70.21   11.48
   7   7   6   60.00    8.36
   7   7   6   59.15   11.19
   7   7   7    1.31    4.78
   7   7   7    9.33    7.56
   7   7   8  180.69   14.75
   7   7   8  154.84   17.17
   7   7   9   22.78    6.60
   7   7   9   16.02    8.99
   7   7  10   54.73    9.16
   7   7  10   64.06   12.33
   7   7  11   46.07    8.49
   7   7  11   68.06   13.08
   7   7  12   17.53    6.37
   7   7  12   19.67    9.35
   7   7  13   37.93    8.14
   7   7  13   42.38   11.74
   7   7  14    3.40    5.62
   7   7  14   -6.84    9.73
   7   7  15   43.61    8.96
   7   7  15    6.95    8.51
   7   7  16   -3.58    5.41
   7   7  16   -2.36    8.42
   7   7  17   59.51   13.41
  -7   8  18   -2.03    6.11
  -7   8  17    5.99    6.42
  -7   8  17    5.14    8.50
  -7   8  17   21.77   16.49
  -7   8  16   17.60   10.01
  -7   8  16   21.64    7.70
  -7   8  16   10.86   14.95
  -7   8  15   96.36   13.14
  -7   8  15  134.61   17.07
  -7   8  14   11.91    8.52
  -7   8  14   15.21    6.64
  -7   8  13   -2.32    7.46
  -7   8  13   28.17    8.02
  -7   8  12    6.79    7.06
  -7   8  12   -1.86    5.42
  -7   8  11   19.87    8.49
  -7   8  11   35.39    8.27
  -7   8  10    2.16    6.52
  -7   8  10   -1.85    5.58
  -7   8   9  154.06   15.41
  -7   8   8  101.35   12.31
  -7   8   7  188.13   16.52
  -7   8   6   22.33    6.87
  -7   8   5   -1.71    5.00
  -7   8   4   -1.70    4.60
  -7   8   3    1.71    5.65
  -7   8   2   -1.71    4.43
  -7   8   1   60.18    9.48
   7   8  -1   50.01    8.49
   7   8   0   -1.41    5.61
   7   8   1   30.10    8.44
   7   8   2  160.27   15.30
   7   8   3  210.48   15.24
   7   8   3  201.37   17.55
   7   8   4  124.17   11.61
   7   8   4  115.25   14.05
   7   8   5  129.51   12.03
   7   8   5  105.89   13.76
   7   8   6  110.20   11.49
   7   8   6   85.08   13.51
   7   8   7  467.02   26.78
   7   8   7  455.35   29.95
   7   8   8   13.38    5.45
   7   8   8    6.25    8.29
   7   8   9  202.35   16.73
   7   8   9  200.10   20.17
   7   8  10   15.94    6.92
   7   8  10   -2.22    8.28
   7   8  11   21.39    6.82
   7   8  11   13.60    9.54
   7   8  12   10.17    6.20
   7   8  12    4.64    8.30
   7   8  13   31.49    8.28
   7   8  13   49.88   12.35
   7   8  14    1.80    5.78
   7   8  14    4.83    8.62
   7   8  15    7.36    6.73
   7   8  15    2.46    8.78
   7   8  16   31.90    8.60
  -7   9  15   18.08    9.45
  -7   9  15    2.06    6.22
  -7   9  15   25.37   17.19
  -7   9  14   10.10    9.23
  -7   9  14   10.20    6.93
  -7   9  14   -3.60   14.30
  -7   9  13   51.90   11.76
  -7   9  13   70.85   11.36
  -7   9  12   41.14   11.04
  -7   9  12   22.06    6.88
  -7   9  11  139.80   17.22
  -7   9  11  121.06   14.60
  -7   9  10   20.93    8.51
  -7   9  10    6.03    6.08
  -7   9   9    4.58    7.58
  -7   9   9    5.86    6.28
  -7   9   8   90.24   12.20
  -7   9   7   -3.79    6.61
  -7   9   6   96.26   12.50
  -7   9   5   15.05    6.74
  -7   9   4   -3.75    4.85
  -7   9   3    7.54    5.69
  -7   9   2   18.84    6.60
  -7   9   1   41.44    9.05
  -7   9   0   -1.88    5.68
   7   9   1   16.35    7.34
   7   9   2   20.77    7.78
   7   9   3   54.69   10.61
   7   9   4   43.85   10.41
   7   9   5  339.03   25.16
   7   9   6    4.51    5.12
   7   9   6   12.43    8.39
   7   9   7   42.00    8.17
   7   9   7   38.77   10.97
   7   9   8   20.92    6.91
   7   9   8   17.78    9.83
   7   9   9   33.24    7.95
   7   9   9   27.48   10.31
   7   9  10    3.43    5.83
   7   9  10    2.35    8.19
   7   9  11   75.57   11.36
   7   9  11   52.76   12.33
   7   9  12   -3.60    6.12
   7   9  12   -4.90    8.76
   7   9  13    1.84    5.75
   7   9  13    2.50    8.71
   7   9  14   13.23    6.76
  -7  10  12   -2.57    7.49
  -7  10  12   -2.14    6.25
  -7  10  12   -3.48   15.12
  -7  10  11   -5.04    8.57
  -7  10  11   -2.17    6.54
  -7  10  10   32.28   10.13
  -7  10  10   37.21    9.58
  -7  10   9    7.34    8.31
  -7  10   9    2.12    6.19
  -7  10   8   73.02   11.66
  -7  10   7    4.14    6.25
  -7  10   6   36.99    9.15
  -7  10   5   98.31   13.42
  -7  10   4    8.20    6.20
  -7  10   3   85.82   12.79
  -7  10   2    8.14    6.92
  -7  10   1   32.57    8.77
  -7  10   0   32.44    8.73
  -7  10  -1   14.16    6.89
   7  10   3  110.44   14.13
   7  10   4   28.46    9.82
   7  10   5   23.33    9.53
   7  10   6    2.20    8.22
   7  10   7    2.27    8.31
   7  10   8    4.68    9.13
   7  10   9    2.41    8.99
   7  10  10    2.47    9.21
   7  10  11    3.72    5.99
   7  10  11   15.11    9.82
   7  10  12    5.70    5.74
  -7  11   9   23.26    9.49
  -7  11   9   26.07   16.67
  -7  11   8   30.66   10.09
  -7  11   8   67.56   11.75
  -7  11   7   91.05   13.22
  -7  11   6    4.42    7.11
  -7  11   5   57.09   10.87
  -7  11   4    8.79    7.27
  -7  11   3   -4.37    6.59
  -7  11   2  -13.08    7.02
  -7  11   1   73.91   12.25
  -7  11   0   60.41   11.10
  -7  11  -1  105.33   14.30
  -7  11  -2    2.14    5.52
  -7  11  -3   -2.12    6.81
   7  11   6    6.90    9.82
   7  11   7    4.75    9.43
   7  11   8    2.44   10.06
  -8   0  23   21.86   14.22
   8   0 -22   13.82   11.43
  -8   0  22    3.52   12.28
   8   0 -21    3.33    9.36
  -8   0  21   -3.39   12.11
   8   0 -20    3.20    9.65
  -8   0  20    6.51   10.47
   8   0 -19    6.11   10.37
  -8   0  19    6.24   11.41
   8   0 -18  139.33   18.73
  -8   0  18  106.96   17.85
   8   0 -17   -2.75    9.83
  -8   0  17   -2.82   10.07
   8   0 -16   18.19    9.55
  -8   0  16   40.05   11.81
   8   0 -15    7.33    8.94
  -8   0  15   -2.52    9.81
   8   0 -14  105.30   14.53
  -8   0  14   82.29   14.45
   8   0 -13    4.76    5.67
   8   0 -13   -4.28    8.16
  -8   0  13    2.19    7.43
   8   0 -13    3.64    6.66
   8   0 -12  117.12   14.16
   8   0 -12   82.66   10.64
  -8   0  12  102.93   13.68
   8   0 -12   95.62   11.86
   8   0 -11   -2.75    4.68
  -8   0  11   -1.85    6.28
   8   0 -11   -7.36    6.41
   8   0 -11   -4.79    5.97
   8   0 -10   48.69    8.27
  -8   0  10   45.52    6.13
  -8   0  10   39.81    4.39
   8   0 -10   38.15    7.03
   8   0 -10   38.91    8.37
  -8   0  10   35.53    8.99
  -8   0  10   67.28   10.01
   8   0  -9   -1.36    4.50
   8   0  -9   -0.45    1.69
  -8   0   9   -0.80    3.10
  -8   0   9   -0.89    1.84
   8   0  -9   -1.55    5.27
  -8   0   9    6.83    5.32
  -8   0   9    1.52    4.45
  -8   0   8  114.20    8.77
  -8   0   8  117.58    7.09
   8   0  -8  123.78   11.18
  -8   0   8  131.17   12.94
  -8   0   8  107.07   11.47
   8   0  -8  117.27   10.26
  -8   0   8  126.59   13.12
  -8   0   7   -0.34    1.56
  -8   0   7   -0.67    2.67
   8   0  -7   -2.23    4.08
  -8   0   7   -1.24    3.97
  -8   0   7    7.26    5.18
  -8   0   7    1.39    4.19
   8   0  -7   -0.96    2.69
  -8   0   6 2001.05   72.37
   8   0  -6 1951.54   76.69
  -8   0   6 2017.32   80.83
   8   0  -6 2008.57   78.20
  -8   0   6 1917.97   81.36
  -8   0   6 2019.63   80.17
  -8   0   5   -1.29    3.90
   8   0  -5   -0.90    3.05
  -8   0   5    0.89    1.29
   8   0  -5    0.77    2.07
  -8   0   5   -1.11    3.35
  -8   0   5   -2.35    4.40
  -8   0   4   39.28    3.33
   8   0  -4   48.74    5.11
  -8   0   4   36.02    5.72
  -8   0   4   38.50    6.54
   8   0  -4   26.08    4.53
  -8   0   4   37.15    6.14
   8   0  -4   38.55    5.20
  -8   0   3    3.55    4.33
   8   0  -3   -0.65    1.89
  -8   0   3    0.90    2.21
   8   0  -3   -0.82    1.91
  -8   0   3    3.14    3.16
  -8   0   2  344.34   19.47
  -8   0   2  317.04   17.29
   8   0  -2  341.74   17.55
  -8   0   2  328.16   18.36
  -8   0   1   -0.97    3.31
  -8   0   1    0.73    1.88
  -8   0   1   -1.76    2.16
  -8   0   1    0.78    2.27
   8   0  -1    2.38    2.05
  -8   0   0  581.87   26.34
   8   0   0  524.85   29.08
  -8   0  -1   -2.57    3.40
  -8   0  -1   -0.82    3.05
  -8   0  -1   -1.44    2.39
   8   0   1   -2.37    3.81
  -8   0  -2  358.03   18.26
  -8   0  -2  347.51   18.82
   8   0   2  371.86   20.87
  -8   0  -2  389.45   19.72
  -8   0  -3   -3.09    3.40
   8   0   3    1.07    3.34
  -8   0  -3    5.59    3.77
  -8   0  -3   -1.79    3.69
  -8   0  -4  246.74   14.70
   8   0   4  250.88   15.93
  -8   0  -4  253.23   16.18
  -8   0  -4  265.75   16.06
   8   0   4  251.33   15.65
  -8   0  -5    0.86    3.30
  -8   0  -5    3.34    4.51
  -8   0  -5    1.16    4.69
   8   0   5   -1.08    3.46
   8   0   5    3.10    3.22
  -8   0  -6   76.87    8.31
  -8   0  -6   92.01   10.41
   8   0   6   85.80    8.99
  -8   0  -6   76.14    9.85
   8   0   6   78.17    8.64
  -8   0  -7   -4.97    5.31
  -8   0  -7  -10.05    7.75
   8   0   7    1.20    3.75
  -8   0  -7    5.97    6.58
   8   0   7   -4.64    4.53
  -8   0  -8 1683.43   68.61
   8   0   8 1689.26   70.22
  -8   0  -8 1642.54   73.27
  -8   0  -8 1712.71   73.20
   8   0   8 1772.70   70.42
  -8   0  -9   -0.98    3.40
  -8   0  -9   -9.00   10.50
  -8   0  -9   -1.16    5.33
   8   0   9    1.39    5.09
  -8   0  -9    5.69    9.80
   8   0   9   -4.05    5.77
  -8   0 -10  216.49   14.97
  -8   0 -10  234.89   17.16
   8   0  10  219.47   17.54
  -8   0 -10  229.88   21.99
   8   0  10  227.22   17.29
  -8   0 -10  230.62   21.79
  -8   0 -11   11.13   12.02
  -8   0 -11    4.02    7.38
  -8   0 -11    1.11    4.42
  -8   0 -11   -2.32   12.52
   8   0  11   -6.49    7.79
   8   0  11   -3.13    6.46
  -8   0 -12   15.15   15.54
   8   0  12   34.77    8.86
   8   0  12   28.51    9.04
  -8   0 -12   49.04   10.25
  -8   0 -13    5.78    9.14
   8   0  13   -1.79    7.39
   8   0  13   -3.71    7.78
   8   0  14  610.34   35.87
   8   0  14  676.35   37.41
   8   0  15   -6.26    7.63
   8   0  16   93.62   13.80
   8   0  16   79.01   12.92
   8   0  17   -2.23    7.77
   8   0  17    2.30    9.31
   8   0  18  281.89   24.14
   8   0  18  266.13   24.02
   8   0  19   -2.42    9.06
   8   0  19   -4.98    8.90
   8   0  20   -2.51    8.07
   8   0  20   -5.16    9.85
   8   0  21   -5.18    8.81
   8   0  21   -2.66   10.15
  -8   1  23    3.62   13.52
   8   1 -22   55.30   15.75
   8  -1 -22   30.98   12.64
  -8   1  22   24.48   12.25
   8   1 -21   -3.33   11.01
   8  -1 -21   -3.32   10.98
  -8  -1  21   -3.42   11.91
  -8   1  21    6.76   11.48
   8   1 -20   41.51   13.01
   8  -1 -20   41.45   12.99
  -8  -1  20   39.40   13.62
  -8   1  20   45.39   14.81
   8   1 -19   48.78   14.50
   8  -1 -19   18.26   11.43
  -8  -1  19   34.56   13.90
  -8   1  19   37.17   14.33
   8   1 -18    2.90    9.31
   8  -1 -18   -2.90    8.14
  -8  -1  18   -9.00   10.19
  -8   1  18    8.86   11.04
   8  -1 -17   76.95   14.77
   8   1 -17  115.35   16.93
  -8  -1  17   88.39   16.38
  -8   1  17  120.69   18.36
   8   1 -16  124.28   16.81
   8  -1 -16  108.86   16.08
  -8  -1  16  126.70   17.96
  -8   1  16  127.03   17.53
   8  -1 -15   63.42   12.56
   8   1 -15   68.21   12.54
  -8  -1  15   83.85   15.90
  -8   1  15   67.12   13.64
   8   1 -14   57.02   11.71
   8  -1 -14   52.51   11.31
  -8  -1  14   83.53   14.44
  -8   1  14   55.62   12.16
   8   1 -13   39.92    8.99
   8  -1 -13   30.83    8.29
   8  -1 -13   17.03    8.18
   8   1 -13   26.89    7.35
   8  -1 -13   22.14    6.59
   8   1 -13   34.08    9.44
  -8   1  13   23.55    9.03
  -8  -1  13   24.55    9.88
   8   1 -12   -1.98    6.55
   8  -1 -12    5.93    6.71
   8   1 -12   -2.94    4.99
   8  -1 -12    4.42    5.01
  -8   1  12   -1.19    4.72
  -8   1  12   -1.97    6.70
  -8  -1  12   -2.07    6.83
   8  -1 -12    1.70    5.30
   8   1 -11    3.17    6.06
   8  -1 -11    1.58    5.23
  -8   1  11    0.71    2.59
  -8   1  11    1.11    4.05
   8  -1 -11   -1.37    5.13
   8   1 -11   -1.36    4.51
   8  -1 -11   -5.48    6.36
   8   1 -11    1.83    7.42
  -8   1  11   -1.81    6.47
  -8   1  11    2.06    7.01
  -8  -1  11   -7.63    6.64
   8  -1 -10  105.44   11.54
   8   1 -10  119.31   12.32
   8  -1 -10  112.44    8.17
  -8   1  10  106.74    8.12
  -8   1  10   93.70    9.49
   8   1 -10   90.51   10.24
   8  -1 -10  136.01   13.76
   8   1 -10  103.04   12.24
  -8  -1  10  107.78   12.78
   8  -1 -10  125.66   11.41
  -8   1  10  110.91   12.50
  -8   1  10  137.33   14.69
   8  -1  -9   -1.34    4.44
   8   1  -9   -2.72    4.62
   8  -1  -9   -0.59    2.17
  -8   1   9   -0.60    2.09
  -8   1   9    2.88    3.59
   8   1  -9   -3.44    3.90
   8  -1  -9   -1.17    4.46
   8   1  -9   -3.10    5.91
   8  -1  -9   -3.07    5.48
  -8  -1   9    6.72    6.68
  -8  -1   9   -3.14    4.90
  -8   1   9    6.03    4.84
  -8   1   9    3.48    5.42
  -8   1   8   39.28    4.34
  -8  -1   8   41.09    4.77
  -8   1   8   26.23    5.34
   8   1  -8   24.77    5.57
   8  -1  -8   25.62    5.89
  -8  -1   8   31.05    6.78
  -8  -1   8   22.82    6.37
  -8   1   8   28.31    7.13
  -8  -1   8   42.38    8.69
  -8   1   8   42.47    8.89
   8   1  -8   29.12    5.61
   8  -1  -8   27.78    5.45
  -8   1   7  165.25    9.76
  -8  -1   7  171.16    9.59
   8   1  -7  183.05   12.22
   8  -1  -7  165.19   11.88
  -8  -1   7  175.19   14.73
  -8   1   7  177.84   15.02
   8   1  -7  144.17   12.21
   8  -1  -7  156.67   12.48
  -8  -1   7  164.59   13.73
  -8  -1   7  177.38   13.76
  -8   1   7  180.38   14.36
  -8   1   6  536.97   22.32
  -8  -1   6  517.60   21.66
   8   1  -6  492.38   24.18
   8  -1  -6  518.54   24.72
  -8  -1   6  495.18   27.46
  -8   1   6  489.80   27.45
   8   1  -6  529.01   25.74
   8  -1  -6  541.50   25.92
  -8  -1   6  533.70   28.56
  -8   1   6  521.90   28.52
  -8  -1   6  498.86   26.67
  -8  -1   6  484.04   26.01
  -8   1   6  487.30   26.90
  -8  -1   5  622.12   31.07
   8   1  -5  584.15   27.47
   8  -1  -5  624.33   28.13
  -8   1   5  637.43   31.17
  -8   1   5  620.95   25.97
   8   1  -5  639.04   29.02
   8  -1  -5  648.86   29.10
  -8  -1   5  608.37   31.52
  -8   1   5  642.48   31.86
  -8   1   5  623.53   30.68
  -8  -1   5  637.29   29.77
  -8  -1   5  630.38   30.22
  -8  -1   4 2308.68   89.86
  -8   1   4 2394.67   86.34
  -8  -1   4 2392.57   91.29
  -8   1   4 2361.18   91.10
  -8   1   4 2311.82   90.69
   8   1  -4 2309.17   87.33
   8  -1  -4 2341.95   88.08
   8   1  -4 2172.35   88.76
   8  -1  -4 2369.46   89.24
   8   1  -4 2491.30   89.31
   8  -1  -4 2399.97   89.03
  -8  -1   4 2324.30   91.72
  -8   1   4 2197.05   91.18
  -8   1   3  184.83   12.46
   8   1  -3  181.99   10.72
  -8  -1   3  176.89   12.00
   8   1  -3  172.34   11.58
   8  -1  -3  163.56   11.46
  -8  -1   3  201.86   13.60
  -8   1   3  208.46   13.67
  -8   1   3  220.38   14.65
  -8  -1   2  460.85   21.80
  -8   1   2  452.03   22.27
   8  -1  -2  443.93   21.75
   8   1  -2  421.58   21.37
  -8  -1   2  477.32   23.30
  -8   1   2  444.85   22.73
  -8  -1   2  436.96   23.97
  -8   1   2  469.67   23.78
  -8  -1   1  108.33    8.07
  -8   1   1  107.36    8.53
  -8  -1   1  113.09   10.05
  -8   1   1  102.73    9.38
   8   1  -1  117.86    8.77
   8  -1  -1  125.78    9.12
  -8   1   1  100.09    8.29
  -8  -1   1  117.83    8.95
  -8  -1   1   93.89    8.57
  -8   1   1  123.53    9.41
  -8  -1   0   34.36    5.22
  -8  -1   0   53.01    5.18
  -8  -1   0   42.02    5.98
   8  -1   0   35.11    6.44
  -8   1   0   56.93    6.64
  -8  -1   0   42.30    5.20
  -8   1   0   40.73    5.03
   8   1   1   25.10    5.67
   8  -1   1   27.37    5.87
  -8  -1  -1   33.69    5.25
  -8   1  -1   28.27    4.85
  -8  -1  -1   26.03    4.09
  -8   1  -1   23.97    3.99
  -8  -1  -1   29.40    4.86
  -8   1  -1   26.36    5.12
  -8  -1  -1   25.21    4.59
  -8  -1  -2   18.52    4.23
  -8  -1  -2   17.83    3.23
   8  -1   2   13.48    4.53
   8   1   2   21.46    5.34
  -8  -1  -2   21.04    4.51
  -8   1  -2   29.98    5.49
  -8  -1  -2   27.04    4.06
  -8   1  -2   26.13    4.02
  -8  -1  -2   29.44    5.05
  -8   1  -2   18.26    4.36
  -8  -1  -3   78.54    7.84
  -8  -1  -3   71.31    6.03
  -8  -1  -3   83.60    8.10
   8   1   3   75.78    8.32
   8  -1   3   73.67    8.26
  -8   1  -3   76.25    8.41
  -8   1  -3   70.63    7.80
  -8  -1  -3   77.75    7.97
  -8  -1  -4   13.55    3.42
   8   1   4   17.62    4.67
   8  -1   4   15.09    4.48
  -8  -1  -4   16.78    5.19
  -8   1  -4   20.64    5.77
   8   1   4    8.97    3.76
  -8   1  -4   18.75    4.95
   8  -1   4   17.01    4.65
  -8  -1  -4   12.98    4.63
  -8  -1  -4   22.85    5.21
  -8   1  -5   67.98    8.69
  -8  -1  -5   71.07    8.57
  -8   1  -5   77.05    7.30
  -8  -1  -5   54.79    7.52
  -8  -1  -5   66.24    6.43
  -8   1  -5   65.69    9.04
   8   1   5   63.81    7.56
   8  -1   5   51.16    7.26
  -8  -1  -5   74.36    8.83
   8   1   5   70.25    7.98
   8  -1   5   73.54    8.04
  -8   1  -6  851.18   37.37
  -8  -1  -6  865.80   39.24
  -8  -1  -6  907.29   37.44
   8   1   6  871.46   39.34
   8  -1   6  876.57   40.27
  -8  -1  -6  918.13   41.32
  -8   1  -6  791.32   40.87
   8   1   6  881.87   39.51
   8  -1   6  868.37   39.36
  -8  -1  -6  920.71   41.39
  -8   1  -6  874.96   40.80
  -8  -1  -7   -7.25    8.46
  -8   1  -7   -7.16    7.32
  -8   1  -7    6.25    4.06
  -8  -1  -7    4.37    3.47
  -8  -1  -7    3.41    5.01
   8   1   7   -2.31    3.92
   8  -1   7    2.50    3.90
  -8  -1  -7    2.89    6.37
  -8   1  -7    1.55    6.40
   8  -1   7    2.32    4.14
   8   1   7    2.32    4.05
  -8  -1  -8   19.58    8.76
  -8   1  -8   17.73    9.27
  -8   1  -8   27.71    5.83
   8   1   8   23.87    5.43
  -8  -1  -8   26.45    5.38
  -8  -1  -8   31.75    7.72
   8   1   8   21.00    5.84
   8  -1   8   26.89    7.16
  -8  -1  -8   26.27    9.53
  -8   1  -8   29.72   10.23
   8  -1   8   16.22    5.39
   8   1   8   30.02    6.52
   8   1   9  598.10   28.48
  -8   1  -9  534.49   27.61
  -8  -1  -9  537.89   29.50
  -8  -1  -9  558.61   27.58
   8   1   9  515.54   28.93
   8  -1   9  583.88   30.75
  -8  -1  -9  538.72   33.75
  -8   1  -9  553.12   34.64
  -8   1  -9  575.11   33.77
   8   1   9  558.93   29.88
  -8  -1  -9  590.30   34.26
   8  -1   9  594.53   30.25
  -8  -1 -10  107.45   16.80
  -8   1 -10  110.10   17.18
   8   1  10  140.64   11.76
  -8   1 -10  131.74   12.01
  -8  -1 -10  121.51   11.05
  -8  -1 -10  132.13   13.98
   8   1  10  129.46   12.98
  -8   1 -10   67.16   15.95
  -8  -1 -10  146.53   18.47
   8  -1  10  103.15   12.47
   8   1  10  110.74   12.32
   8  -1  10  123.30   12.93
  -8  -1 -11  148.65   20.18
  -8   1 -11  166.65   20.37
  -8  -1 -11  129.12   11.95
  -8   1 -11  167.46   14.09
   8   1  11  143.60   12.41
   8   1  11  174.01   15.37
   8  -1  11  155.94   15.49
  -8   1 -11  156.75   20.79
  -8  -1 -11  150.05   20.12
   8   1  11  167.38   15.37
   8  -1  11  152.55   14.66
  -8  -1 -11  135.91   15.14
   8   1  12  151.19   12.91
  -8  -1 -12  111.90   20.40
   8  -1  12  172.71   16.16
   8   1  12  126.72   14.18
   8   1  12  172.91   15.80
   8  -1  12  125.27   13.96
  -8  -1 -12  141.61   16.28
   8   1  13  265.96   18.48
   8   1  13  296.14   22.28
   8  -1  13  300.99   22.92
   8   1  13  306.31   22.26
   8  -1  13  320.85   22.82
  -8  -1 -13  295.59   23.27
   8  -1  14   24.60    8.98
   8   1  14    5.70    6.96
   8   1  14   11.57    5.22
   8   1  14    1.90    7.11
   8  -1  14   12.18    8.38
   8   1  15   10.08    8.17
   8  -1  15   -2.01    6.06
   8   1  15   -1.32    5.15
   8   1  15   -4.03    7.19
   8  -1  15   17.16    9.16
   8   1  16   80.53   13.12
   8  -1  16   63.13   12.40
   8   1  16   72.13   12.92
   8  -1  16   59.19   12.12
   8   1  17   55.60   11.70
   8  -1  17   40.20   10.98
   8   1  17   20.08    9.92
   8  -1  17   35.59   10.48
   8   1  18   85.92   14.12
   8  -1  18   91.21   15.07
   8  -1  18  104.51   15.66
   8   1  18   72.22   13.81
   8   1  19   33.79   11.03
   8  -1  19   30.73   10.62
   8  -1  19   29.02   10.21
   8   1  19   38.75   11.54
   8   1  20   14.98    9.40
   8  -1  20   21.20   10.59
   8   1  20   50.15   12.56
   8  -1  20   57.63   12.85
   8   1  21   25.75   10.67
   8  -1  21   32.77   11.70
   8   1  21   20.71    9.93
   8  -1  21   38.79   11.97
   8   1  22   15.83   10.30
  -8   2  22    3.49   11.53
   8  -2 -22   -3.41   10.97
   8   2 -22    6.87   10.38
  -8   2  21    6.73   13.36
   8   2 -21    9.93    9.99
   8  -2 -21   -6.58   11.48
  -8   2  20   51.48   14.55
   8   2 -20   60.24   14.76
   8  -2 -20   66.38   15.13
  -8   2  19   -3.08   11.52
   8  -2 -19   -3.02   10.80
   8   2 -19   -3.03   10.81
  -8   2  18  291.07   27.21
  -8  -2  18  223.84   25.30
   8   2 -18  273.33   26.13
   8  -2 -18  267.36   25.72
  -8  -2  17    2.88   10.04
  -8   2  17    2.78    8.94
   8   2 -17   -5.44    8.75
   8  -2 -17   16.34    9.49
  -8  -2  16   21.80   10.86
  -8   2  16   36.75   11.05
   8   2 -16   30.81   10.04
   8  -2 -16   15.42    9.00
  -8   2  15   63.84   12.93
  -8  -2  15   72.16   14.15
   8   2 -15   24.10    9.14
   8  -2 -15   43.49   10.93
  -8   2  14   45.02    8.74
  -8   2  14   59.33   11.64
  -8  -2  14   53.22   12.32
   8  -2 -14   38.40    9.78
   8   2 -14   40.61   10.38
  -8   2  13    1.42    5.33
   8   2 -13   -3.58    6.40
   8  -2 -13   -3.58    5.92
  -8   2  13   -2.12    7.00
  -8  -2  13   -2.26    9.49
   8   2 -13    3.11    5.70
   8   2 -13  -14.73    8.83
   8  -2 -13   -6.31    7.69
  -8   2  12   86.79    8.30
  -8   2  12   87.26   10.57
   8   2 -12   91.40   10.89
   8  -2 -12  102.11   11.35
   8   2 -12   76.16   12.10
   8  -2 -12   87.72   12.64
  -8   2  12   78.29   12.32
  -8   2  12  124.51   15.30
  -8  -2  12   73.63   13.18
   8   2 -12   97.30   12.18
   8  -2 -12   93.76   11.87
   8   2 -11   28.13    7.42
   8  -2 -11    6.22    5.30
   8  -2 -11   15.56    4.35
  -8   2  11   22.78    6.18
  -8   2  11   17.01    4.16
   8   2 -11    6.70    4.69
   8  -2 -11   17.74    6.03
   8  -2 -11   -3.59    5.62
   8   2 -11    7.23    6.31
  -8   2  11   25.28    9.01
  -8   2  11   10.80    6.75
  -8  -2  11   21.44    8.87
   8   2 -10   84.08   10.15
   8  -2 -10   63.13    9.28
   8  -2 -10   76.23    7.28
  -8   2  10   71.74    9.06
  -8   2  10   80.76    7.41
   8   2 -10  102.03   10.14
   8  -2 -10   72.95    9.07
   8   2 -10   81.64   10.82
   8  -2 -10   64.27   10.07
  -8   2  10   93.18   12.68
  -8   2  10   77.90   10.99
  -8  -2  10   75.36   11.85
   8  -2  -9   11.80    4.82
   8   2  -9   14.70    5.34
  -8   2   9   14.73    3.71
  -8   2   9   14.75    4.71
  -8   2   9   23.05    7.07
   8   2  -9   13.42    4.72
   8  -2  -9   20.94    5.08
   8  -2  -9    6.02    5.40
   8   2  -9   16.83    5.98
  -8  -2   9   24.56    7.99
  -8   2   8    8.06    5.02
   8   2  -8    2.02    3.05
  -8  -2   8   -1.65    5.76
  -8   2   8    8.32    7.78
   8  -2  -8    4.27    3.12
  -8  -2   8    7.38    5.64
  -8  -2   8   14.92    6.26
   8   2  -8    2.44    3.56
   8  -2  -8    1.19    3.35
  -8   2   8    0.77    2.94
  -8   2   7  242.70   13.56
   8   2  -7  231.04   14.50
   8  -2  -7  238.15   14.99
  -8  -2   7  257.86   18.40
  -8   2   7  242.87   17.95
  -8  -2   7  226.26   16.71
  -8   2   7  250.98   17.82
  -8  -2   7  213.04   16.32
   8   2  -7  223.52   15.32
   8  -2  -7  260.32   16.02
  -8  -2   6   46.29    7.09
  -8  -2   6   28.06    6.84
  -8   2   6   41.24    6.89
  -8   2   6   52.95    8.27
   8   2  -6   33.15    4.89
   8  -2  -6   47.03    5.82
  -8  -2   6   45.17    6.87
   8   2  -6   49.38    6.35
   8  -2  -6   48.00    6.18
  -8  -2   6   63.51    8.90
  -8   2   6   45.38    7.97
  -8   2   6   46.29    5.06
   8   2  -5    5.32    2.78
   8  -2  -5    7.83    3.20
  -8  -2   5    5.32    4.41
  -8   2   5    7.86    4.22
  -8  -2   5   11.94    1.74
  -8   2   5   10.83    2.81
  -8  -2   5    5.23    3.47
   8  -2  -5    9.01    2.94
   8   2  -5   12.35    2.99
  -8   2   5   15.71    4.53
  -8   2   5    8.32    4.26
  -8  -2   5   10.88    4.91
  -8  -2   5    5.05    3.87
   8   2  -5    5.65    2.95
   8  -2  -5    4.63    2.62
  -8  -2   4   73.05    7.87
  -8  -2   4   92.85    8.49
  -8   2   4   93.94    7.48
  -8  -2   4   97.84    9.66
   8   2  -4   99.28    7.16
  -8   2   4  107.43    9.64
   8  -2  -4  100.42    8.03
  -8   2   4   99.22    9.93
  -8   2   4   74.96    8.64
  -8  -2   4   94.58    9.47
  -8   2   4   88.13    9.13
   8   2  -4   97.02    8.18
   8  -2  -4   88.19    7.79
  -8  -2   3  209.91   12.78
  -8  -2   3  192.69   12.72
  -8  -2   3  207.82   12.61
  -8   2   3  242.51   14.58
   8   2  -3  226.52   11.75
  -8   2   3  226.43   15.08
   8   2  -3  220.28   13.16
   8  -2  -3  216.34   13.09
  -8  -2   3  223.63   14.64
  -8   2   3  220.34   14.52
  -8  -2   2    2.20    3.23
  -8  -2   2    3.17    1.20
  -8   2   2    5.47    2.75
  -8  -2   2    6.46    2.50
  -8   2   2    4.95    3.86
  -8  -2   2    3.44    4.28
   8   2  -2    0.79    1.94
   8  -2  -2    3.19    2.06
  -8  -2   2    0.98    2.95
  -8   2   2    1.90    2.67
  -8  -2   1   38.67    5.53
  -8   2   1   37.07    5.12
  -8  -2   1   39.72    3.26
  -8  -2   1   36.07    5.47
  -8  -2   1   33.37    4.32
  -8   2   1   35.54    4.88
  -8  -2   1   38.01    6.07
  -8   2   1   41.81    6.10
  -8  -2   1   37.48    4.98
  -8   2   1   27.37    4.49
  -8  -2   0   69.29    5.05
  -8  -2   0   83.50    7.68
  -8   2   0   74.20    6.96
  -8  -2   0   76.69    6.09
   8  -2   0   70.22    8.70
  -8  -2   0   63.16    7.24
  -8   2   0   73.61    7.69
  -8   2   0   68.74    6.68
  -8  -2   0   70.36    6.70
   8   2   1  545.44   29.79
   8  -2   1  626.75   30.72
  -8   2  -1  627.96   28.75
  -8  -2  -1  624.62   28.11
  -8  -2  -1  615.55   25.09
  -8  -2  -1  597.01   28.22
  -8  -2  -1  590.74   27.04
  -8   2  -1  604.42   27.26
  -8  -2  -1  632.99   28.23
  -8   2  -1  620.66   27.95
  -8   2  -2  845.97   37.77
   8   2   2  879.50   39.59
   8  -2   2  862.05   39.25
  -8  -2  -2  866.63   36.87
  -8  -2  -2  851.28   34.44
  -8  -2  -2  867.51   37.19
  -8   2  -2  880.67   36.51
  -8  -2  -2  862.11   36.11
  -8   2  -2  855.28   36.90
  -8  -2  -2  838.15   37.48
  -8  -2  -3    1.19    2.23
  -8  -2  -3    4.93    4.67
   8   2   3   -1.09    3.91
   8  -2   3   -1.11    3.78
  -8  -2  -3    4.29    3.34
  -8   2  -3   -1.04    4.44
  -8  -2  -3    2.76    4.12
  -8   2  -3   -0.90    3.71
   8   2   4 2091.52   80.66
  -8  -2  -4 2143.41   82.13
  -8  -2  -4 2065.20   78.41
   8  -2   4 2115.74   82.31
   8   2   4 2099.73   81.75
  -8  -2  -4 1997.85   80.55
  -8   2  -4 2083.69   82.59
  -8  -2  -4 2081.41   81.41
  -8   2  -4 2035.59   81.08
  -8  -2  -5   -3.46    4.75
  -8   2  -5    3.38    5.75
   8   2   5    1.00    3.56
  -8  -2  -5    0.75    2.67
  -8  -2  -5   -2.27    5.46
  -8  -2  -5   -1.08    4.59
   8   2   5    2.06    3.31
  -8   2  -5   -3.88    5.24
   8  -2   5    1.15    3.82
   8   2   5   -1.04    3.87
   8  -2   5    1.04    3.04
   8   2   6  212.50   14.42
  -8  -2  -6  218.62   15.88
  -8  -2  -6  216.09   13.36
   8   2   6  217.76   14.52
   8  -2   6  200.65   14.86
  -8  -2  -6  202.11   15.47
  -8   2  -6  221.19   17.26
  -8  -2  -6  219.88   16.37
   8   2   6  222.28   14.85
   8  -2   6  213.86   14.67
  -8   2  -6  185.15   15.07
  -8  -2  -7   -4.45    9.60
  -8   2  -7   -5.80    8.15
  -8   2  -7    1.66    3.54
   8   2   7   -2.20    4.28
  -8  -2  -7   -0.90    3.12
  -8  -2  -7    3.94    6.05
   8   2   7    1.10    3.85
   8  -2   7    1.30    4.17
  -8  -2  -7    5.65    5.93
  -8   2  -7    1.64    7.33
   8   2   7    4.63    4.23
   8  -2   7   -1.15    5.32
  -8  -2  -8   -1.67    8.00
  -8   2  -8    9.75    8.96
   8   2   8    1.15    4.10
  -8   2  -8    9.60    4.76
  -8  -2  -8   -0.97    4.06
  -8  -2  -8    4.22    6.67
   8   2   8    2.35    4.40
   8  -2   8    1.39    4.34
  -8  -2  -8    1.62    8.44
  -8   2  -8    1.84   10.51
   8  -2   8    2.48    4.42
   8   2   8   -1.24    4.44
  -8  -2  -9   59.50   13.41
  -8   2  -9   85.18   13.61
   8   2   9   76.74    9.24
  -8   2  -9   95.78    9.24
  -8  -2  -9   76.08    8.38
  -8  -2  -9   56.06   11.29
  -8  -2  -9  103.88   15.08
  -8   2  -9   77.30   15.54
   8   2   9   78.40    9.18
   8  -2   9   76.30   10.85
   8  -2   9   79.96    9.91
   8   2   9   81.92    9.82
   8   2  10  375.85   21.66
  -8  -2 -10  354.48   24.11
  -8   2 -10  334.74   19.63
  -8  -2 -10  357.91   20.34
   8   2  10  358.28   21.83
   8  -2  10  304.67   22.44
  -8   2 -10  358.96   28.27
  -8  -2 -10  325.49   26.23
   8   2  10  340.39   22.18
   8  -2  10  355.89   22.34
  -8  -2 -10  343.65   27.18
  -8   2 -10  312.88   25.50
  -8  -2 -11  163.03   20.89
  -8   2 -11  123.29   19.43
  -8  -2 -11  137.22   12.30
   8   2  11  161.33   13.67
   8   2  11  151.45   14.04
   8  -2  11  158.79   15.84
  -8   2 -11  127.37   20.40
  -8  -2 -11  105.70   18.18
   8  -2  11  174.09   15.15
   8   2  11  154.13   14.51
  -8  -2 -11  135.28   16.39
   8   2  12  187.28   15.34
   8   2  12  195.77   16.95
   8  -2  12  195.51   18.19
  -8  -2 -12  183.61   23.29
   8  -2  12  184.97   16.75
   8   2  12  193.65   17.10
  -8  -2 -12  177.40   18.98
   8   2  13   -3.56    7.35
   8  -2  13   -1.76    7.27
   8   2  13    4.18    5.74
   8   2  13   -6.79    6.87
   8  -2  13   -3.93    7.50
   8   2  14   -3.79    6.77
   8  -2  14   -1.88    7.17
   8   2  14   -2.87    6.12
   8   2  14   -7.24    7.06
   8  -2  14   -6.25    7.62
   8   2  15    6.00    7.15
   8  -2  15   -1.98    7.25
   8   2  15    8.80    5.60
   8   2  15   -1.92    6.68
   8  -2  15    6.59    7.85
   8  -2  16   18.89    9.41
   8   2  16   21.14    8.73
   8   2  16   18.03    7.23
   8   2  16    4.05    8.21
   8  -2  16   11.54    9.36
   8   2  17   55.22   11.50
   8  -2  17   86.93   14.43
   8   2  17   73.09   12.58
   8  -2  17   81.46   13.53
   8   2  18  106.39   15.31
   8  -2  18  131.08   17.74
   8   2  18  115.58   16.33
   8  -2  18   80.49   14.59
   8   2  19    6.94    8.83
   8  -2  19    2.62    8.89
   8   2  19   -7.21    9.91
   8  -2  19   -2.39    8.34
   8   2  20  165.04   19.12
   8  -2  20  148.84   19.47
   8   2  20  171.53   19.52
   8  -2  20  161.39   19.40
   8  -2  21   -2.78   11.28
   8  -2  21  -12.81   10.38
   8   2  21    2.56    9.15
  -8   3  22   17.32   12.95
   8  -3 -22   26.86   13.09
  -8   3  21  -13.32   11.61
   8  -3 -21   -6.48   10.41
   8   3 -21   -3.26   10.17
  -8   3  20   -3.21   10.30
   8  -3 -20    6.22   10.00
   8   3 -20   12.50    9.74
  -8   3  19   18.45   14.18
   8   3 -19   -2.98   10.89
   8  -3 -19   -2.97   10.10
  -8   3  18   67.19   14.89
   8   3 -18   50.89   12.63
   8  -3 -18   59.37   14.08
  -8   3  17   55.38   13.26
   8   3 -17   61.43   13.62
   8  -3 -17   48.22   12.14
  -8  -3  16  264.47   25.06
  -8   3  16  234.25   23.04
   8   3 -16  239.01   23.05
   8  -3 -16  224.72   22.36
  -8   3  15  159.65   15.61
  -8  -3  15  205.53   21.58
  -8   3  15  128.93   16.88
   8  -3 -15  149.24   17.49
   8   3 -15  155.72   17.90
  -8   3  14  153.27   12.59
  -8   3  14  159.46   15.27
  -8   3  14  195.16   19.43
   8   3 -14  177.93   15.82
  -8  -3  14  149.08   18.69
   8   3 -14  147.78   17.04
   8  -3 -14  128.28   16.55
  -8   3  13  501.72   29.18
  -8   3  13  539.48   26.56
   8  -3 -13  485.14   31.35
   8   3 -13  424.76   29.94
  -8  -3  13  489.96   33.38
  -8   3  13  593.58   34.09
   8   3 -13  485.81   28.66
   8   3 -13  516.97   29.14
   8   3 -13  479.27   29.75
   8  -3 -13  489.70   29.81
   8   3 -12  133.90   14.31
   8  -3 -12  162.74   15.25
   8  -3 -12  191.34   12.92
  -8   3  12  169.64   14.84
  -8   3  12  151.08   12.03
   8  -3 -12  134.57   13.40
   8  -3 -12  176.60   17.15
   8   3 -12  129.59   14.94
  -8   3  12  164.50   17.03
   8   3 -12  177.09   14.86
  -8  -3  12  149.37   17.86
   8   3 -12  184.81   15.03
  -8   3  12  166.32   18.42
   8   3 -11    3.04    4.44
   8  -3 -11    7.53    5.76
  -8   3  11   10.22    4.37
   8  -3 -11    5.72    4.07
  -8   3  11    5.73    5.24
   8   3 -11   10.43    4.98
   8  -3 -11    9.34    4.42
   8   3 -11    8.81    5.99
   8  -3 -11    1.75    5.94
  -8   3  11    4.30    8.05
  -8  -3  11    7.91    8.01
  -8   3  11    1.82    6.17
   8   3 -10   25.37    6.30
   8  -3 -10   19.40    5.60
  -8   3  10   39.46    5.74
  -8   3  10   30.04    6.81
   8   3 -10   29.85    6.33
   8  -3 -10   33.53    6.13
   8   3 -10   25.96    7.44
   8  -3 -10   35.16    7.94
  -8   3  10   35.61    9.31
  -8  -3  10   23.72    9.49
  -8   3   9   35.28    5.72
  -8  -3   9   23.33    8.69
   8   3  -9   29.75    6.47
   8  -3  -9   26.50    5.92
  -8   3   9   34.47    7.82
   8   3  -9   30.23    6.28
   8  -3  -9   38.12    6.33
  -8   3   8   -0.93    3.23
  -8  -3   8   -4.54    6.56
   8   3  -8   -2.36    4.22
   8  -3  -8   -1.14    4.09
  -8   3   8    1.66    4.66
   8  -3  -8   -1.07    2.76
   8   3  -8   -0.97    3.54
  -8  -3   7   -0.63    2.74
  -8   3   7    0.89    2.59
  -8  -3   7    2.62    4.56
  -8  -3   7    6.80    5.80
   8   3  -7   -1.07    2.76
   8  -3  -7    1.03    2.91
   8  -3  -7    4.88    2.95
  -8   3   7    4.56    6.27
  -8  -3   7    9.10    6.02
  -8   3   7    4.56    3.93
   8   3  -7    2.56    2.66
  -8  -3   6    5.95    3.31
  -8   3   6   13.02    4.07
  -8   3   6    6.93    4.19
   8  -3  -6    8.12    3.31
  -8   3   6    8.14    5.60
  -8  -3   6    9.55    5.73
   8   3  -6    5.17    2.32
  -8  -3   6   10.50    4.99
  -8  -3   6    7.25    4.43
  -8  -3   6    6.03    4.71
  -8   3   6    4.50    4.68
   8   3  -6   16.31    4.24
   8  -3  -6    5.56    3.08
  -8  -3   5  135.61   11.33
  -8  -3   5  130.03   11.34
  -8   3   5  142.47   12.34
  -8  -3   5  131.38    9.69
  -8   3   5  136.28   10.17
  -8  -3   5  154.15   12.62
   8   3  -5  139.26    9.23
   8  -3  -5  145.19   10.44
  -8   3   5  183.13   13.65
  -8   3   5  128.53   11.67
   8   3  -5  164.87   11.34
   8  -3  -5  144.68   10.67
   8   3  -5  164.13   11.05
   8  -3  -5  159.63   10.83
  -8  -3   5  138.58   12.65
  -8   3   5  129.67   12.26
  -8  -3   4  108.21    9.34
  -8  -3   4  104.64    8.96
  -8  -3   4   94.21    8.09
  -8   3   4   97.46    8.37
  -8   3   4   96.33    9.40
  -8  -3   4  107.78   10.24
   8   3  -4   90.05    6.75
   8  -3  -4  100.29    8.23
  -8   3   4   88.24    9.26
   8  -3  -4   93.91    8.09
  -8   3   4  101.61    9.74
   8   3  -4   88.95    7.94
  -8  -3   4  105.41   10.23
  -8   3   4   96.73    9.64
  -8  -3   3  368.04   18.74
  -8  -3   3  357.18   18.47
  -8  -3   3  352.81   18.69
  -8   3   3  373.73   20.61
  -8   3   3  378.51   20.55
   8  -3  -3  374.92   18.96
   8   3  -3  344.19   18.49
  -8  -3   3  352.23   20.39
  -8   3   3  391.93   20.81
  -8   3   2   31.07    5.06
  -8  -3   2   33.32    5.54
  -8  -3   2   28.07    2.52
  -8  -3   2   20.75    4.81
  -8  -3   2   28.62    2.79
  -8   3   2   32.47    5.30
  -8  -3   2   35.01    4.50
  -8   3   2   32.77    5.71
  -8  -3   2   29.83    6.21
   8   3  -2   25.92    4.14
   8  -3  -2   25.73    4.28
  -8  -3   2   28.93    4.50
  -8  -3   1  233.65   14.34
  -8   3   1  219.75   13.91
  -8  -3   1  217.29   10.56
  -8  -3   1  232.17   10.82
  -8  -3   1  230.05   14.38
  -8  -3   1  217.20   12.33
  -8   3   1  228.08   14.20
   8  -3  -1  237.51   16.64
  -8  -3   1  201.53   14.32
  -8   3   1  263.95   15.12
  -8  -3   1  204.31   13.28
  -8   3   1  247.00   14.00
  -8  -3   1  223.49   11.80
  -8  -3   0  769.55   33.51
  -8  -3   0  727.86   29.96
  -8   3   0  684.15   32.16
   8  -3   0  755.91   35.90
  -8   3   0  741.95   32.84
  -8  -3   0  728.94   32.52
  -8  -3   0  736.56   29.23
  -8   3   0  669.22   31.14
  -8  -3   0  712.76   31.57
  -8  -3   0  728.72   32.25
  -8   3   0  719.57   31.81
   8  -3   1 1827.45   73.82
  -8   3  -1 1861.79   71.52
  -8  -3  -1 1809.29   70.10
  -8  -3  -1 1811.12   67.81
  -8   3  -1 1814.01   69.71
  -8  -3  -1 1768.02   69.46
  -8  -3  -1 1870.73   70.64
  -8   3  -1 1768.54   69.96
   8   3   1 1783.55   70.69
  -8  -3  -1 1762.42   71.74
  -8  -3  -2 5280.92  194.15
   8   3   2 5369.12  192.95
  -8  -3  -2 5374.17  189.87
   8   3   2 4937.00  194.34
   8  -3   2 5314.04  195.09
  -8  -3  -2 5227.68  191.47
  -8   3  -2 5466.75  193.84
  -8  -3  -2 5206.74  190.98
  -8   3  -2 5281.13  191.31
  -8   3  -2 5291.26  191.94
  -8  -3  -2 5254.52  192.20
   8   3   3 1016.06   43.11
  -8  -3  -3  985.67   44.33
  -8  -3  -3  993.54   40.39
  -8  -3  -3  998.24   41.82
   8   3   3  967.96   44.02
   8  -3   3  998.84   44.28
  -8   3  -3  959.44   43.67
  -8  -3  -3 1037.56   42.98
  -8   3  -3  998.42   42.47
   8   3   4 1086.86   45.40
  -8  -3  -4 1074.54   46.96
  -8  -3  -4 1056.86   42.66
   8   3   4 1001.56   45.18
   8  -3   4 1055.35   46.01
  -8   3  -4 1024.02   46.57
  -8  -3  -4 1035.79   44.37
  -8  -3  -4 1018.42   45.05
  -8   3  -4 1038.59   44.89
  -8  -3  -5   68.95    9.25
  -8   3  -5   60.97    8.84
   8   3   5   81.40    9.06
  -8  -3  -5   65.28    6.91
  -8  -3  -5   83.93   10.79
   8   3   5   80.47    8.62
  -8  -3  -5   78.96    8.94
   8  -3   5   70.72    8.64
  -8   3  -5   66.44    9.81
   8   3   5   78.08    8.39
   8  -3   5   78.64    8.64
   8   3   6  175.23   13.48
  -8  -3  -6  180.69   15.54
  -8  -3  -6  178.09   11.91
   8   3   6  163.28   12.52
   8  -3   6  181.48   13.88
  -8  -3  -6  162.67   13.96
  -8   3  -6  184.83   16.37
  -8  -3  -6  147.61   14.46
  -8   3  -6  184.66   15.21
   8   3   6  169.36   12.97
   8  -3   6  178.37   13.23
  -8  -3  -7   15.28    8.69
  -8   3  -7   26.59    9.09
   8   3   7   30.94    7.11
  -8  -3  -7   15.84    4.34
  -8  -3  -7   16.83    9.33
   8   3   7   17.03    4.80
   8  -3   7   10.72    5.36
  -8  -3  -7   19.55    7.33
  -8   3  -7   29.57    9.61
   8   3   7   20.69    5.91
   8  -3   7   11.45    4.84
  -8   3  -8  403.10   20.60
   8   3   8  376.53   22.87
  -8  -3  -8  417.60   26.39
  -8  -3  -8  397.48   21.52
   8  -3   8  432.36   24.82
   8   3   8  398.49   22.33
  -8  -3  -8  350.40   25.03
  -8   3  -8  402.08   28.18
   8  -3   8  430.19   23.49
  -8   3  -8  379.20   25.80
  -8  -3  -8  422.89   27.06
   8   3   8  367.19   22.52
  -8  -3  -9  192.62   19.25
  -8   3  -9  164.29   17.84
  -8   3  -9  153.70   11.69
   8   3   9  182.90   14.79
  -8  -3  -9  139.81   12.11
  -8  -3  -9  168.46   17.52
   8  -3   9  174.87   15.30
   8   3   9  178.88   13.96
  -8   3  -9  151.65   19.32
  -8  -3  -9  155.11   18.19
   8   3   9  157.79   13.96
   8  -3   9  165.13   13.90
  -8  -3 -10   97.74   16.84
  -8   3 -10  102.99   16.19
   8   3  10   98.72   11.49
  -8  -3 -10  106.83   10.52
   8   3  10  144.50   12.49
  -8  -3 -10   99.94   15.08
  -8   3 -10  100.42   18.06
  -8  -3 -10  104.68   17.05
   8  -3  10  111.97   13.09
   8   3  10  112.87   12.30
   8  -3  10  115.51   12.14
  -8  -3 -11   98.86   18.43
  -8   3 -11  152.91   20.99
  -8  -3 -11  107.78   11.04
   8   3  11  124.36   13.09
   8  -3  11  129.07   14.44
   8   3  11  119.99   13.54
   8  -3  11  113.59   12.55
   8   3  11  119.48   12.23
  -8  -3 -11  101.06   15.70
   8   3  12    4.94    7.03
   8  -3  12   -4.86    7.03
   8   3  12   -3.03    6.47
   8   3  12    5.91    6.09
   8  -3  12   -1.89    8.19
   8  -3  13   -5.19    6.47
   8   3  13    5.27    6.71
   8   3  13    1.56    6.09
   8   3  13   -3.16    6.52
   8  -3  13   -2.01    8.27
   8   3  14    3.73    6.68
   8  -3  14   20.24    7.73
   8   3  14    9.64    5.88
   8   3  14    3.37    7.21
   8  -3  14   12.76    8.77
   8   3  15   -1.98    6.89
   8  -3  15   -3.90    6.63
   8   3  15    3.29    6.40
   8   3  15   -5.38    7.66
   8  -3  15   -2.24    8.18
   8   3  16   97.89   14.17
   8  -3  16   80.34   12.87
   8   3  16   99.11   12.59
   8   3  16   93.04   13.32
   8  -3  16  108.18   15.69
   8   3  17   65.44   12.23
   8  -3  17   47.57   11.65
   8   3  17   85.25   11.95
   8  -3  17   59.01   13.33
   8  -3  18   -5.12    9.98
   8   3  18   -4.55    7.52
   8  -3  18   -2.26    8.07
   8  -3  19   23.92   11.00
   8  -3  19   23.53   10.08
   8   3  19   25.98   10.61
   8  -3  20   -2.74    8.82
   8  -3  20    2.44    8.71
   8   3  20   -4.89    9.33
   8  -3  21   12.59   10.57
   8   3  21    5.03    8.98
   8   4 -22   42.79   14.34
   8  -4 -22   26.07   13.74
  -8   4  22   41.15   15.40
   8   4 -21   37.97   12.41
   8  -4 -21   44.07   12.59
  -8   4  21   36.41   14.20
   8   4 -20   15.13   11.33
   8  -4 -20   18.14   11.07
  -8   4  20   22.33   12.69
   8   4 -19   51.88   13.23
   8  -4 -19   63.59   13.82
  -8   4  19   42.79   13.18
   8   4 -18   -2.73   10.65
   8  -4 -18    2.75    9.09
  -8   4  18   26.16   10.87
   8   4 -17   79.96   14.49
   8  -4 -17   96.20   15.42
   8   4 -16   12.12    7.56
   8  -4 -16    2.45    7.63
  -8   4  16    3.93    6.14
  -8   4  16    7.77    8.33
   8   4 -15   27.25    9.07
   8  -4 -15   18.34    8.43
  -8   4  15   32.21    8.53
  -8   4  15   24.28    6.01
  -8   4  15   26.71    9.87
   8  -4 -14  173.03   17.96
   8   4 -14  192.80   18.73
  -8   4  14  206.69   18.16
  -8   4  14  223.38   15.85
  -8   4  14  186.37   18.78
   8  -4 -13  141.24   14.41
   8   4 -13  161.60   16.41
   8  -4 -13  118.82   14.48
  -8   4  13  163.08   16.89
   8   4 -13  132.99   14.37
  -8   4  13  119.65   13.65
  -8   4  13  152.02   12.89
   8   4 -12   98.32   11.99
   8  -4 -12  110.81   12.54
  -8   4  12  103.11   12.49
  -8   4  12  123.07   11.47
   8  -4 -12  133.19   14.16
   8   4 -12  122.38   14.03
  -8   4  12  116.73   14.38
   8   4 -12  120.49   13.08
  -8   4  12  139.56   17.86
   8   4 -11   98.80   11.22
   8  -4 -11   95.01   11.01
  -8   4  11   81.56    9.39
  -8   4  11  100.36   12.00
   8  -4 -11  124.31   11.60
   8   4 -11  102.98   12.38
   8  -4 -11  102.12   12.28
  -8  -4  11  105.61   15.01
  -8   4  11  125.86   15.62
   8   4 -11  102.64   11.75
  -8   4  11  129.46   14.29
  -8   4  10   -3.07    6.10
  -8   4  10   -1.19    3.58
  -8  -4  10   -3.67    7.83
  -8   4  10    2.04    7.10
   8   4 -10   -3.84    5.74
   8   4 -10   -4.02    4.43
   8  -4 -10   -1.32    3.85
   8  -4 -10   -2.43    3.14
  -8   4   9   76.58    8.73
  -8  -4   9   60.35   10.84
   8   4  -9   79.64    9.12
   8   4  -9   61.72    8.28
   8  -4  -9   60.05    8.02
   8  -4  -9   61.25    7.76
   8   4  -9   51.31    7.09
  -8   4   9   56.23   10.04
  -8   4   8  506.51   26.55
   8   4  -8  540.70   25.67
  -8   4   8  494.46   30.15
  -8  -4   8  516.94   29.60
   8   4  -8  546.60   27.20
   8  -4  -8  527.43   26.77
   8  -4  -8  541.89   26.62
  -8   4   7    3.19    3.21
  -8   4   7    7.87    6.60
  -8   4   7    1.58    4.76
  -8  -4   7    7.79    6.42
   8   4  -7    0.79    2.95
  -8  -4   7   -2.73    6.01
   8   4  -7   -3.06    3.56
   8  -4  -7   -0.98    2.86
  -8   4   6  309.26   20.78
  -8  -4   6  316.82   20.06
  -8   4   6  345.87   19.28
   8   4  -6  330.60   16.64
   8  -4  -6  362.17   18.79
  -8  -4   6  313.27   20.83
  -8   4   6  313.37   21.06
  -8   4   6  323.44   19.81
   8   4  -6  293.22   17.99
   8  -4  -6  319.95   18.11
   8   4  -6  331.28   18.19
   8  -4  -6  355.14   18.36
  -8  -4   5  116.19   10.89
  -8   4   5  137.98   12.34
  -8  -4   5  125.81   10.82
  -8   4   5  127.42   10.62
  -8  -4   5  137.15   10.11
   8   4  -5  122.71    8.29
   8  -4  -5  144.00   10.47
  -8  -4   5  135.24   12.46
  -8   4   5  129.95   11.98
  -8   4   5  130.99   11.24
   8   4  -5  135.20   10.08
   8  -4  -5  126.15    9.77
   8   4  -5  119.66    9.50
  -8  -4   5  133.44   12.55
  -8   4   5  119.65   11.97
  -8  -4   4  101.99   10.50
  -8   4   4  138.88   11.70
   8   4  -4  123.35    6.22
  -8   4   4  114.88   10.11
  -8  -4   4  134.96   10.52
  -8  -4   4  133.36   11.58
  -8   4   4  122.44   11.24
   8   4  -4  116.58    7.51
  -8   4   4  115.50   10.78
  -8   4   4  117.54   10.49
   8   4  -4  123.77    9.30
   8  -4  -4  114.85    9.04
  -8  -4   4  106.79    9.79
  -8  -4   4  126.44   10.08
   8   4  -3   14.07    2.23
  -8  -4   3   10.21    3.49
  -8   4   3   15.94    4.46
  -8  -4   3   19.41    4.82
  -8   4   3   19.75    4.71
  -8  -4   3   11.98    5.10
  -8   4   3   14.73    4.49
  -8  -4   3   13.57    4.27
  -8   4   3   13.19    4.64
  -8  -4   3   12.62    4.59
   8   4  -3   11.14    3.08
   8  -4  -3   17.79    3.71
   8   4  -2   82.65    7.31
  -8  -4   2   97.39    9.00
  -8   4   2   81.46    8.13
   8   4  -2   71.09    5.14
  -8   4   2   77.33    8.28
  -8  -4   2   73.00    8.54
  -8  -4   2   94.31    9.53
  -8   4   2   72.41    7.78
  -8  -4   2   72.71    6.74
  -8  -4   2   74.22    6.50
   8   4  -1   16.92    2.86
  -8  -4   1   18.02    2.87
   8   4  -1   11.39    3.90
  -8   4   1   18.95    4.36
  -8  -4   1   13.04    2.95
  -8  -4   1   16.92    5.91
  -8  -4   1   18.30    4.84
  -8   4   1   20.46    5.20
  -8  -4   1   15.20    4.22
  -8   4   1   10.01    3.37
  -8   4   0    1.73    2.53
  -8  -4   0    0.89    2.70
   8   4   0    8.50    2.40
  -8  -4   0    3.76    2.13
   8   4   0   -0.93    3.25
  -8   4   0    0.96    2.60
  -8  -4   0    0.97    1.66
  -8  -4   0    1.68    3.41
  -8  -4   0    7.92    5.58
   8  -4   0    1.35    4.22
  -8   4   0    2.86    3.71
  -8  -4   0   -0.79    2.55
  -8   4   0    1.54    2.54
  -8  -4   0    0.82    3.34
  -8   4   0   -0.78    3.27
  -8  -4  -1  242.11   13.18
   8   4   1  255.85   15.69
  -8  -4  -1  258.59   17.49
  -8  -4  -1  246.18   12.19
  -8   4  -1  285.10   16.51
   8  -4   1  252.72   17.31
  -8  -4  -1  233.20   14.16
  -8  -4  -1  233.04   12.89
   8   4   1  254.79   13.06
  -8  -4  -1  235.56   14.55
  -8   4  -1  248.85   14.51
  -8   4  -1  239.83   14.05
  -8  -4  -1  245.21   14.15
  -8  -4  -2  561.13   24.59
  -8  -4  -2  535.18   24.30
   8   4   2  533.36   23.94
   8  -4   2  566.81   28.64
  -8  -4  -2  526.21   24.85
  -8  -4  -2  518.76   28.63
   8   4   2  526.45   26.76
  -8   4  -2  559.85   27.65
  -8  -4  -2  547.77   25.95
  -8  -4  -2  530.26   24.87
  -8   4  -2  564.68   25.18
  -8   4  -2  492.74   25.12
  -8  -4  -3 1396.88   56.43
  -8  -4  -3 1501.19   56.90
   8   4   3 1418.20   55.90
   8   4   3 1335.50   59.31
   8  -4   3 1429.68   60.27
   8   4   3 1399.85   59.12
  -8  -4  -3 1445.20   61.75
  -8  -4  -3 1367.88   56.65
  -8   4  -3 1453.15   60.33
  -8  -4  -3 1450.45   58.37
  -8   4  -3 1496.39   58.30
  -8  -4  -3 1428.05   56.36
  -8   4  -3 1448.95   56.87
  -8  -4  -4  883.86   37.46
   8   4   4  858.03   36.51
  -8  -4  -4  870.71   37.22
   8   4   4  857.33   39.45
   8  -4   4  845.75   39.81
  -8  -4  -4  847.53   41.99
   8   4   4  871.45   39.82
  -8  -4  -4  838.21   37.57
  -8   4  -4  853.71   40.91
  -8  -4  -4  874.52   39.26
  -8   4  -4  877.84   38.98
  -8  -4  -5  174.98   12.93
  -8  -4  -5  196.15   12.94
   8   4   5  200.01   12.60
   8   4   5  182.78   14.46
  -8  -4  -5  180.24   17.12
   8  -4   5  199.22   14.99
   8   4   5  192.74   13.89
  -8  -4  -5  170.50   13.53
  -8   4  -5  189.93   16.62
  -8  -4  -5  175.92   14.68
  -8   4  -5  232.54   15.88
   8   4   6    2.74    3.18
  -8  -4  -6   -2.10    3.83
  -8  -4  -6    1.91    2.98
   8   4   6   -1.33    5.95
  -8   4  -6    2.71    8.25
  -8  -4  -6   -4.21    8.75
  -8  -4  -6   -1.66   10.58
   8   4   6    1.07    3.90
   8  -4   6    2.61    4.66
  -8   4  -6   -1.67    7.35
   8   4   6   -2.18    4.66
   8  -4   6    1.09    4.09
   8   4   7   33.33    5.72
  -8  -4  -7   32.98    6.60
  -8  -4  -7   32.53    5.92
   8   4   7   32.13    7.85
  -8  -4  -7   39.45   10.78
  -8   4  -7   35.05   10.14
  -8  -4  -7   38.50   11.78
   8   4   7   34.96    6.22
   8  -4   7   31.71    6.97
  -8   4  -7   22.31   10.99
   8   4   7   33.25    6.29
   8  -4   7   20.48    5.50
   8   4   8    3.14    3.75
  -8  -4  -8    9.81    6.20
  -8  -4  -8    1.08    3.85
   8   4   8   14.59    6.83
  -8   4  -8    5.11    9.76
  -8  -4  -8   -3.53   10.30
  -8  -4  -8    5.50   10.01
  -8   4  -8   10.27   10.86
   8   4   8    7.56    4.69
   8  -4   8    5.87    4.99
   8   4   8    8.51    4.74
   8  -4   8    2.41    4.50
  -8  -4  -9  162.75   14.02
  -8  -4  -9  163.91   13.04
   8   4   9  165.72   15.13
  -8  -4  -9  145.81   18.09
  -8   4  -9  179.07   19.11
   8  -4   9  172.26   15.28
   8   4   9  151.03   12.60
  -8  -4  -9  163.38   18.61
  -8   4  -9  159.72   20.63
   8  -4   9  175.91   14.20
   8   4   9  154.98   13.71
  -8  -4 -10   16.76    5.49
   8   4  10   17.44    7.85
  -8  -4 -10   26.58    7.43
  -8  -4 -10   19.72   13.46
  -8   4 -10   19.11   14.82
   8   4  10   14.33    5.85
   8  -4  10   28.47    8.59
   8   4  10   20.98    6.58
   8  -4  10   26.13    7.38
  -8   4 -11    9.40   13.08
   8   4  11    3.82    5.35
   8  -4  11   -1.79    6.71
   8   4  11    1.64    6.40
   8   4  11    4.51    6.31
   8  -4  11    1.47    5.97
   8  -4  12   17.19    8.84
   8   4  12   18.57    8.25
   8   4  12   16.08    7.24
   8  -4  12   31.58    8.01
   8  -4  13   20.31    8.85
   8   4  13   29.55    8.71
   8   4  13   22.34    7.85
   8  -4  13   20.22    7.47
   8  -4  14   77.42   13.12
   8   4  14  100.00   13.08
   8  -4  14   64.48   10.84
   8   4  14   60.21   10.66
   8  -4  15   -6.79    9.50
   8   4  15   -1.82    7.51
   8   4  15   -5.78    8.22
   8  -4  15    5.70    6.78
   8  -4  16  168.83   18.62
   8   4  16  120.78   14.59
   8   4  16  139.88   16.08
   8  -4  16  144.04   15.97
   8  -4  17   14.91    9.88
   8   4  17   20.71    8.69
   8   4  17   10.61    9.07
   8  -4  17   -2.11    8.53
   8  -4  18   12.93    9.03
   8   4  18   17.12    7.86
   8   4  18   22.16    9.32
   8  -4  18    8.80    8.42
   8  -4  19   52.70   12.05
   8   4  19   39.08   10.69
   8  -4  19   26.79   10.73
   8  -4  20    2.37    8.68
   8   4  20    2.37    8.07
   8  -4  20   -2.77    9.64
  -8  -5  21   18.19   20.36
  -8   5  21    3.29   11.74
  -8   5  20    3.16   11.29
  -8  -5  20   17.63   18.18
  -8   5  19   24.27   12.52
   8   5 -19    5.46    8.78
  -8   5  18    2.89    8.72
   8   5 -18    2.58    8.54
  -8   5  17   -2.19    7.04
  -8   5  17    2.74    9.78
   8   5 -17   -7.31    9.68
   8   5 -16    2.28    7.35
  -8   5  16   18.05    9.65
  -8   5  16    8.48    7.58
  -8   5  16   17.05    6.52
   8   5 -15   53.45   10.58
   8  -5 -15   48.00   10.93
  -8   5  15   70.43   12.98
  -8   5  15   52.74    9.15
  -8   5  15   57.21   11.09
   8   5 -14    5.99    7.46
   8  -5 -14   -2.03    8.52
  -8   5  14    6.84    7.95
  -8   5  14   11.78    6.85
  -8   5  14    5.85    4.97
  -8   5  13   -1.43    4.61
   8  -5 -13    1.88    6.03
   8   5 -13    9.27    6.30
  -8   5  13   14.98    8.17
  -8   5  13    3.78    6.76
  -8   5  12  105.19   11.01
  -8   5  12   80.22   11.84
  -8   5  12  102.49   13.44
  -8   5  12   94.63   14.59
   8   5 -12   84.27   11.68
   8  -5 -12   60.45   10.25
  -8   5  11  195.52   20.31
  -8   5  11  221.38   18.54
  -8   5  11  242.21   17.19
   8  -5 -10  230.56   16.26
  -8   5  10  229.69   17.21
  -8   5  10  214.58   20.40
  -8   5   9   29.15    8.60
   8  -5  -9   26.77    5.75
   8   5  -9   24.33    5.90
  -8   5   9   13.06    5.24
   8  -5  -8   69.05    7.86
  -8   5   8   57.42    9.62
  -8   5   8   69.63    8.81
   8   5  -8   51.64    7.34
  -8   5   7    9.94    4.25
  -8   5   7   23.19    7.09
   8  -5  -7    9.91    3.66
  -8   5   7   16.33    5.77
   8  -5  -7   13.90    3.82
   8   5  -7   18.21    4.81
  -8   5   6  321.53   21.53
  -8   5   6  309.40   19.59
  -8   5   6  324.65   21.53
   8  -5  -6  340.45   18.49
  -8   5   6  292.80   18.91
   8   5  -6  320.77   18.28
   8  -5  -6  333.86   18.09
   8   5  -6  326.73   17.84
  -8   5   5  425.45   25.35
  -8   5   5  476.49   25.02
  -8   5   5  419.88   24.90
  -8   5   5  438.87   23.76
  -8   5   5  456.10   26.04
   8   5  -5  434.58   22.17
   8  -5  -5  467.93   22.51
  -8  -5   4  990.43   44.48
  -8   5   4 1074.97   46.13
  -8   5   4  976.67   45.97
  -8   5   4 1054.94   45.58
  -8   5   4 1033.14   44.22
  -8  -5   4  992.65   45.84
  -8   5   4 1036.18   46.02
   8   5  -4 1031.12   42.60
   8  -5  -4 1015.65   42.64
  -8  -5   3  571.12   28.77
  -8   5   3  526.45   27.18
  -8   5   3  509.82   28.05
  -8   5   3  577.27   27.25
  -8  -5   3  554.16   28.37
  -8   5   3  527.14   27.73
   8   5  -3  541.96   25.48
   8  -5  -3  590.88   26.05
   8   5  -2  772.58   33.62
  -8  -5   2  692.67   35.50
  -8  -5   2  692.20   33.61
  -8   5   2  759.63   35.22
  -8   5   2  800.92   34.19
  -8   5   2  748.35   34.09
  -8  -5   2  777.86   34.78
   8   5  -2  717.08   30.15
   8   5  -1  186.91   10.83
  -8  -5   1  184.83   15.79
   8   5  -1  206.45   13.70
  -8   5   1  182.61   13.48
  -8   5   1  177.50   12.89
  -8  -5   1  175.41   12.84
  -8   5   1  196.84   13.18
  -8  -5   1  197.47   12.75
  -8   5   1  203.16   12.41
   8   5   0  125.64    8.43
   8   5   0  107.29   10.03
  -8   5   0   99.67    9.61
  -8   5   0  126.31   10.98
   8  -5   0  106.39   11.66
  -8  -5   0  139.81   13.92
  -8  -5   0  110.11    9.20
  -8   5   0  123.72    9.43
  -8  -5   0   97.51    8.96
  -8   5   0  109.30    9.29
  -8  -5  -1   52.78    6.55
   8   5   1   65.93    6.36
   8   5   1   61.51    8.11
  -8   5  -1   70.36    7.93
  -8  -5  -1   75.52   11.90
   8  -5   1   73.92    9.60
  -8   5  -1   71.11    8.98
  -8   5  -1   69.50    6.73
  -8  -5  -1   77.78    7.92
  -8   5  -1   81.73    7.79
   8   5   2  147.07   10.03
  -8  -5  -2  178.05   16.34
   8   5   2  134.29   12.15
   8  -5   2  128.36   12.33
  -8   5  -2  112.07   11.78
  -8  -5  -2  130.30   10.85
  -8   5  -2  139.41   10.62
  -8   5  -2  130.13    9.56
   8   5   3   51.36    6.33
   8   5   3   82.32    9.78
  -8  -5  -3   66.91    7.00
  -8   5  -3   56.54    7.88
   8  -5   3   57.78    8.95
  -8  -5  -3   74.41   12.74
  -8   5  -3   75.21   10.57
  -8   5  -3   68.44    6.55
  -8  -5  -4   53.90    6.77
   8   5   4   38.83    8.02
  -8   5  -4   52.82    8.20
  -8  -5  -4   63.14   12.82
   8  -5   4   54.79    8.33
  -8   5  -4   46.90    9.73
   8   5   4   55.42    6.58
   8   5   5   50.87    8.93
  -8  -5  -5   49.28    6.81
  -8   5  -5   28.79    8.12
  -8  -5  -5   17.88   10.98
   8  -5   5   37.51    7.61
  -8   5  -5   63.56   11.52
   8   5   5   40.58    5.97
   8   5   6   26.76    7.91
  -8  -5  -6   23.22    5.46
  -8   5  -6   18.36    8.78
  -8  -5  -6   26.24   10.77
   8  -5   6   18.81    5.99
  -8   5  -6   25.38   11.60
   8   5   6   36.36    6.16
   8   5   7  155.26   14.64
   8   5   7  134.89   11.34
  -8  -5  -7  154.52   12.25
  -8  -5  -7  129.18   17.24
   8  -5   7  151.06   13.37
  -8   5  -7  115.75   16.85
   8   5   7  111.15   11.38
   8  -5   7  135.45   11.72
  -8  -5  -8    4.79    4.58
   8   5   8    6.50    7.49
  -8   5  -8   13.10   12.85
   8  -5   8    7.48    5.60
   8   5   8    8.42    5.39
   8  -5   8   10.70    5.33
   8   5   8    1.14    3.99
  -8  -5  -9   35.56    7.40
   8   5   9   37.12    9.21
   8  -5   9   36.59    8.52
  -8   5  -9   40.42   16.84
   8   5   9   33.12    7.42
   8  -5   9   36.35    7.44
   8   5   9   43.38    7.10
  -8  -5  -9   49.57    8.53
   8   5  10  103.18   13.45
   8  -5  10  103.07   12.62
   8   5  10  110.20   11.62
   8  -5  10  100.12   11.23
  -8  -5 -10  116.47   12.43
   8   5  10  101.57   10.74
   8   5  11   77.65   12.15
   8  -5  11   99.06   12.91
   8   5  11   63.92    9.67
   8  -5  11   96.79   11.16
   8   5  11   98.53   10.70
   8   5  12  322.91   22.29
   8  -5  12  348.05   22.66
   8   5  12  375.91   25.43
   8  -5  12  367.46   25.29
   8   5  13   41.30    8.90
   8  -5  13   37.24    8.26
   8   5  13   20.96    8.48
   8  -5  13   36.58   10.69
   8   5  14    5.25    7.23
   8   5  14   -1.95    7.14
   8  -5  14   15.05    8.71
   8   5  15    1.85    6.77
   8   5  15   11.98    8.09
   8  -5  15    9.07    8.47
   8   5  16   19.47    8.32
   8   5  16    6.08    7.58
   8  -5  16    2.37    8.88
   8   5  17   59.03   11.89
   8  -5  17   62.14   13.90
   8   5  17   82.09   13.40
   8  -5  18    2.59    9.67
   8   5  18   12.43    8.69
   8  -5  19   48.16   12.79
   8   5  19   46.03   11.18
  -8  -6  20    4.37   17.68
  -8  -6  19   42.31   20.06
  -8   6  19    6.02    9.09
  -8   6  19   10.50   16.82
  -8   6  18    2.87    8.66
  -8   6  17    8.16    8.74
  -8   6  17    2.33    6.80
  -8   6  16   12.88    8.76
  -8   6  16   10.17    5.92
  -8   6  16    9.06    7.29
  -8   6  15   -2.43    7.10
  -8   6  15   -1.66    4.86
  -8   6  15   -2.19    7.03
  -8   6  14   94.08   14.19
  -8   6  14   99.48   11.57
  -8   6  14  114.12   14.70
  -8   6  13   -1.59    4.81
  -8   6  13   -2.17    7.55
  -8   6  13    2.05    6.38
  -8   6  12   22.03    6.51
  -8   6  12   18.43    7.67
  -8   6  12   19.95    9.33
  -8   6  12    5.94    6.57
  -8   6  11   65.66    9.72
  -8   6  11   40.38    9.56
  -8   6  11   70.30   12.94
  -8   6  10  119.78   14.25
  -8   6  10  175.73   14.57
  -8   6  10  146.43   16.70
  -8   6   9  285.29   19.62
   8  -6  -9  281.76   17.53
  -8   6   9  263.40   21.71
  -8   6   8  135.43   12.80
  -8   6   8   92.02   12.72
   8  -6  -8  117.47   10.41
   8  -6  -7  719.25   32.74
  -8   6   7  693.51   35.19
  -8   6   7  669.08   36.91
  -8   6   6   66.02    9.19
  -8   6   6   83.94   10.83
  -8   6   5  479.43   27.43
  -8   6   5  520.34   28.59
  -8   6   4    1.40    4.37
  -8   6   4    4.22    4.24
   8   6  -3  247.67   15.31
  -8   6   3  234.92   17.42
  -8   6   3  228.51   16.63
   8   6  -2  387.99   21.18
  -8   6   2  366.01   21.95
  -8  -6   2  411.28   25.09
   8   6  -1  189.18   13.49
  -8   6   1  139.53   12.18
  -8  -6   1  171.76   16.76
  -8  -6   0   47.56   10.75
   8  -6   0   31.85    7.12
  -8   6   0   15.68    4.72
   8   6   0   35.11    7.07
   8   6   0   33.39    5.15
   8  -6   1   18.62    6.26
  -8  -6  -1    8.34    9.76
  -8   6  -1   15.35    4.81
   8   6   1   21.20    6.63
   8   6   1   27.64    4.79
   8  -6   2  164.71   14.68
  -8  -6  -2  157.79   17.41
   8   6   2  175.44   14.61
  -8   6  -2  178.28   15.21
   8   6   2  163.55   11.64
   8  -6   3   16.27    6.56
  -8  -6  -3   14.70   11.12
   8   6   3   19.69    7.31
  -8   6  -3   27.78    8.78
   8   6   3   25.21    5.35
  -8  -6  -4    5.77   12.17
   8   6   4   -5.94    7.32
   8   6   4   -3.99    3.65
   8  -6   4   -2.68    4.79
  -8   6  -4    6.46    8.53
   8   6   5   24.98    8.38
   8   6   5   23.37    5.23
   8  -6   5   21.57    6.61
  -8   6  -5   16.09   11.35
   8   6   6   34.38    9.84
   8   6   6   24.60    5.65
  -8   6  -6   27.47   12.26
   8  -6   6   19.39    6.62
   8   6   7   18.76    7.80
  -8  -6  -7   25.16    6.32
   8   6   7   29.57    6.31
   8  -6   7   18.76    6.61
  -8   6  -7   34.27   13.89
   8   6   8   17.82    8.10
   8   6   8    7.46    5.05
   8  -6   8    7.58    5.92
  -8   6  -8    2.33   12.57
   8   6   9   49.85   10.79
   8   6   9   43.20    7.31
   8  -6   9   43.34    8.81
   8   6  10   20.98    8.04
   8   6  10   20.55    6.45
   8  -6  10   22.07    7.86
   8   6  11   -5.90    7.35
   8   6  11    1.43    4.45
   8  -6  11   -5.40    7.02
   8   6  12   32.18    9.60
   8   6  12   44.55    8.57
   8  -6  12   19.05    7.79
   8   6  13  119.73   15.52
   8   6  13  115.66   12.92
   8  -6  14   10.64    8.12
   8   6  14   -2.11    7.89
   8  -6  15  163.65   18.31
   8   6  15  165.36   18.09
   8  -6  16   18.83    9.57
   8   6  16   30.60   10.26
   8  -6  17   12.27    9.57
   8   6  17   13.27    9.13
   8  -6  18    2.55    9.33
   8   6  18    8.92    9.52
   8   6  19   -2.24    9.72
  -8   7  19    7.28   15.53
  -8   7  18    7.57    7.37
  -8   7  18   11.05   15.19
  -8   7  17   32.08   10.60
  -8   7  17   35.56    9.07
  -8   7  16   85.03   14.47
  -8   7  16   60.06   12.45
  -8   7  16   95.55   12.38
  -8   7  15    4.89    8.11
  -8   7  15   18.05    6.91
  -8   7  15   18.64    8.53
  -8   7  14  317.29   25.19
  -8   7  14  341.62   25.75
  -8   7  14  264.45   20.86
  -8   7  13   -1.76    5.12
  -8   7  13   -4.39    7.66
  -8   7  13    8.80    7.48
  -8   7  12    1.74    4.89
  -8   7  12    7.66    9.75
  -8   7  12    2.14    6.88
  -8   7  11   22.65    7.21
  -8   7  11   19.34    9.81
  -8   7  11   14.61    8.16
  -8   7  10   -1.70    5.29
  -8   7  10    2.04    6.16
  -8   7  10    4.53    7.90
  -8   7   9   44.33   10.46
  -8   7   9   65.63    9.60
  -8   7   8   37.45    9.43
  -8   7   8   37.07    7.65
  -8   7   7   56.93   10.17
  -8   7   7   46.07    8.12
  -8   7   6   49.59    9.24
  -8   7   6   33.28    7.54
  -8   7   5   14.29    6.08
  -8   7   5   14.18    6.28
  -8   7   4   11.96    5.23
  -8   7   4   14.17    5.77
  -8   7   3  125.90   12.62
  -8   7   3  148.96   13.96
  -8   7   2   79.47   10.10
  -8   7   2  119.48   12.55
   8   7  -2  113.06   10.74
  -8   7   1   68.78    8.97
   8   7  -1   88.22   10.02
  -8   7   0   54.06    7.80
   8   7   0   76.44   10.13
  -8  -7  -1  138.27   17.88
  -8   7  -1  121.45   10.99
   8   7   1  122.56   12.72
  -8  -7  -2   85.25   15.33
   8   7   2   74.67   10.56
  -8   7  -2   63.69    7.83
   8   7   3  286.02   20.79
   8   7   3  306.30   18.06
   8   7   4   76.45   11.34
   8   7   4   98.20    9.83
   8   7   5   58.08   10.69
   8   7   5   80.12    9.15
   8   7   6   -1.78    7.07
   8   7   6    4.96    3.87
   8   7   7   98.46   13.40
   8   7   7  112.94   11.39
   8   7   8   78.96   12.38
   8   7   8   71.85    9.57
   8   7   9   23.88    9.34
   8   7   9   21.18    6.18
   8   7  10   71.78   12.35
   8   7  10   78.00   10.34
   8   7  11  141.35   16.56
   8   7  11  147.15   14.08
   8   7  12   56.09   12.15
   8   7  12   52.29    9.02
   8   7  13    2.21    7.70
   8   7  13    1.64    5.56
   8   7  14    9.02    8.79
   8   7  14   -3.38    5.42
   8   7  15    9.15    9.44
   8   7  15    5.20    5.06
   8   7  16   -6.98    9.07
   8   7  17    2.35    9.51
  -8   8  17   83.06   21.50
  -8   8  17   46.07   10.04
  -8   8  16   -1.98    6.16
  -8   8  16    2.53    7.39
  -8   8  15   13.59    6.93
  -8   8  15   -4.94    8.40
  -8   8  14    5.75    6.34
  -8   8  14    2.41    7.51
  -8   8  13   41.75    9.11
  -8   8  13   40.04   10.64
  -8   8  12   47.21    9.44
  -8   8  12   43.72   11.31
  -8   8  11   22.82    7.15
  -8   8  11   22.54    8.64
  -8   8  10   40.95    8.81
  -8   8  10   37.61    9.54
  -8   8   9   -1.81    6.60
  -8   8   8   90.74   12.11
  -8   8   7    1.76    5.14
  -8   8   6   84.49   11.77
  -8   8   5   14.05    6.44
  -8   8   4   33.26    7.80
  -8   8   3   -1.76    4.74
  -8   8   2    8.82    5.33
   8   8  -1  241.81   17.61
   8   8   0   96.10   11.46
   8   8   1    3.00    6.07
   8   8   2   60.46   10.14
   8   8   3  536.27   31.16
   8   8   4   54.59   10.45
   8   8   5  369.12   25.73
   8   8   6    7.67    8.05
   8   8   6    1.36    4.49
   8   8   7   37.75    9.83
   8   8   7   17.00    6.39
   8   8   8   -4.11    8.62
   8   8   8    2.94    4.86
   8   8   9   84.82   13.53
   8   8   9   80.76   10.68
   8   8  10   34.89    9.82
   8   8  10   28.36    7.34
   8   8  11   33.58   10.41
   8   8  11   44.03    8.73
   8   8  12   18.34    9.29
   8   8  12    1.69    5.58
   8   8  13    7.03    8.37
   8   8  13    3.47    4.88
   8   8  14    4.76    9.27
   8   8  14    7.11    5.88
   8   8  15    4.84    8.64
   8   8  15   -1.82    6.19
  -8   9  15  103.72   13.91
  -8   9  14   24.69    8.38
  -8   9  14   25.52    9.78
  -8   9  13   69.59   11.65
  -8   9  13   70.18   13.75
  -8   9  12   10.18    7.11
  -8   9  12   14.74    8.57
  -8   9  11   41.17    9.55
  -8   9  11   19.32    9.08
  -8   9  10    4.04    5.46
  -8   9  10    7.13    8.29
  -8   9   9   21.76    7.75
  -8   9   8   -1.95    5.69
  -8   9   7    9.67    5.85
  -8   9   6   67.47   11.29
  -8   9   5   44.20    9.36
  -8   9   4   13.44    6.87
  -8   9   3   13.50    6.74
  -8   9   2   -1.93    5.42
  -8   9   1   59.78   10.41
  -8   9   0    5.78    5.62
   8   9   1  156.87   15.33
   8   9   2   -1.71    6.24
   8   9   3    1.80    7.00
   8   9   4   -3.77    8.18
   8   9   5  198.81   19.13
   8   9   6    6.13    7.64
   8   9   7   44.40   11.76
   8   9   8   91.66   14.18
   8   9   9   31.57   10.60
   8   9  10    2.32    8.65
   8   9  10    3.37    5.42
   8   9  11    4.72    9.01
   8   9  11    3.46    6.04
   8   9  12   16.89    9.80
   8   9  12   28.46    7.89
   8   9  13    4.92   10.32
   8   9  13    3.65    5.87
   8   9  14   87.90   12.49
  -8  10  12    6.53    6.57
  -8  10  11   15.47    7.54
  -8  10  11   28.21   10.41
  -8  10  10   10.97    7.45
  -8  10  10  -10.12    9.86
  -8  10   9    4.28    6.03
  -8  10   9   17.50    9.14
  -8  10   8    2.11    5.93
  -8  10   7   42.07    9.53
  -8  10   6    2.09    5.64
  -8  10   5   18.79    7.12
  -8  10   4   16.72    7.31
  -8  10   3   47.91   10.15
  -8  10   2   39.44    9.11
  -8  10   1  176.52   17.70
  -8  10   0   -2.07    6.45
  -8  10  -1   55.66   10.35
   8  10   4    2.00    7.63
   8  10   5    6.23    8.57
   8  10   6    2.16    7.34
   8  10   7   78.15   13.64
   8  10   8   25.28   10.01
   8  10   9   77.91   14.51
   8  10  10    2.42    9.42
  -8  11   7    4.50    6.79
  -8  11   6   15.70    7.84
  -8  11   5   64.71   11.88
  -8  11   4   31.26    9.11
  -8  11   3  255.13   22.12
  -8  11   2   -2.21    6.69
  -8  11   1   50.80   10.62
  -8  11   0    4.39    6.17
  -8  11  -1   -2.18    6.14
  -8  11  -2    6.50    6.10
  -8  11  -3    2.16    5.57
   8  11   6   11.26    8.79
   8  11   7   55.75   13.32
   9   0 -22   -6.74   10.50
  -9   0  22   10.71   13.34
   9   0 -21   -3.25   12.40
  -9   0  21   -6.89   12.60
   9   0 -20    3.12    9.42
  -9   0  20   16.61   12.15
  -9   0  19   -6.36   11.09
   9   0 -18   93.75   15.45
  -9   0  18  118.25   18.66
   9   0 -17    2.70    7.87
  -9   0  17    8.63   10.02
   9   0 -16   28.07    9.58
  -9   0  16   24.53   10.87
   9   0 -15    2.40    6.76
  -9   0  15   -5.14    9.60
   9   0 -14   20.33    8.66
  -9   0  14   26.41   10.11
  -9   0  13   -6.71    8.00
   9   0 -12  323.72   23.62
  -9   0  12  303.45   23.99
   9   0 -12  303.70   20.56
   9   0 -12  323.86   22.16
   9   0 -11   -1.57    4.89
   9   0 -11    4.05    4.34
  -9   0  11   -0.96    3.82
   9   0 -11   -5.50    6.55
  -9   0  11    3.79    5.72
  -9   0  11   12.57    8.48
  -9   0  10  279.83   16.42
   9   0 -10  272.88   19.24
  -9   0  10  284.70   21.10
  -9   0  10  275.10   21.69
   9   0 -10  325.98   19.34
  -9   0   9   -1.63    3.24
   9   0  -9   -1.35    4.69
  -9   0   9   -3.16    5.22
  -9   0   9    7.08    6.47
  -9   0   9    3.68    6.88
   9   0  -9   -2.32    3.38
  -9   0   8  372.69   16.95
  -9   0   8  419.04   20.01
   9   0  -8  417.90   23.16
  -9   0   8  448.00   25.83
  -9   0   8  376.34   23.49
   9   0  -8  401.33   21.78
  -9   0   8  423.39   26.17
   9   0  -7    1.13    3.17
  -9   0   7   -1.70    5.14
  -9   0   7   -0.34    1.48
   9   0  -7   -1.93    2.91
  -9   0   7   -1.47    3.80
  -9   0   7    3.04    5.16
  -9   0   6  185.97    9.15
   9   0  -6  170.17   11.83
  -9   0   6  192.74   15.25
   9   0  -6  180.48   12.82
  -9   0   6  175.06   15.18
  -9   0   6  198.01   14.87
  -9   0   5    0.65    1.37
   9   0  -5   -1.58    2.69
  -9   0   5   -2.42    3.89
   9   0  -5   -1.89    3.21
  -9   0   5   -2.82    3.47
  -9   0   5   -3.81    4.75
   9   0  -5   -1.02    2.24
  -9   0   4 1448.20   61.15
   9   0  -4 1515.38   58.54
   9   0  -4 1470.87   59.97
  -9   0   4 1527.52   62.86
  -9   0   3   -1.29    3.89
  -9   0   3    0.99    2.32
   9   0  -3   -2.70    2.72
  -9   0   3   -1.16    3.01
  -9   0   2  113.11   10.31
  -9   0   2  102.57    8.80
   9   0  -2  100.36    8.53
  -9   0   2   91.27    8.99
  -9   0   1   -2.12    3.87
  -9   0   1    0.82    2.38
  -9   0   1   -1.73    2.14
  -9   0   1   -0.99    2.78
  -9   0   0   14.87    3.46
   9   0   0   30.91    6.52
  -9   0   0   20.64    3.92
  -9   0   0   21.60    5.18
   9   0   1    4.09    3.98
  -9   0  -1    0.90    3.45
  -9   0  -1    0.81    1.99
  -9   0  -1   -0.95    3.39
   9   0   2   44.31    7.26
  -9   0  -2   56.84    6.90
  -9   0  -2   67.22    7.22
  -9   0  -2   64.69    6.49
   9   0   3   -2.49    3.89
  -9   0  -3   -4.89    3.89
  -9   0  -3    1.02    3.97
  -9   0  -3   -0.85    3.45
   9   0   4  845.51   37.51
  -9   0  -4  755.47   35.80
  -9   0  -4  779.96   34.73
  -9   0  -4  774.90   36.42
   9   0   5   -1.15    3.47
  -9   0  -5   -3.56    5.47
   9   0   5   -2.42    3.77
  -9   0  -5   -1.23    5.60
  -9   0  -5    0.94    3.82
   9   0   6 1944.85   77.51
  -9   0  -6 1860.75   78.43
  -9   0  -6 1913.19   75.61
  -9   0  -6 1960.68   78.50
   9   0   6 1886.39   76.88
  -9   0  -7   -3.21    5.27
   9   0   7   -1.25    5.14
   9   0   7   -5.18    4.94
  -9   0  -7   -1.55    6.83
  -9   0  -7    5.96    6.87
  -9   0  -8   91.33   10.51
   9   0   8   82.96    9.99
   9   0   8   87.39   10.32
  -9   0  -8  105.92   13.80
  -9   0  -8   69.99   12.49
  -9   0  -9  -11.09   10.29
  -9   0  -9  -11.17    4.76
  -9   0  -9    4.90    6.55
   9   0   9   -4.35    5.65
  -9   0  -9  -11.65   11.82
   9   0   9   -4.20    6.18
  -9   0 -10  181.34   19.84
  -9   0 -10  221.46   15.12
   9   0  10  231.20   17.71
  -9   0 -10  239.09   17.23
  -9   0 -10  175.85   20.93
   9   0  10  235.89   17.61
  -9   0 -11   -3.46    4.84
  -9   0 -11    1.40    7.07
   9   0  11   -1.59    7.45
  -9   0 -11   -2.36   13.62
   9   0  11   -3.28    6.00
  -9   0 -12  104.77   13.15
   9   0  12  109.92   13.68
   9   0  12  118.55   13.37
   9   0  13   -3.70    8.03
   9   0  13   -1.80    6.86
   9   0  14    3.92    7.80
   9   0  14   13.30    7.55
   9   0  15    2.07    7.21
   9   0  15   -4.01    7.16
   9   0  16    4.35    7.77
   9   0  16   -6.31    9.27
   9   0  17  -11.37    8.69
   9   0  17   -4.41    8.41
   9   0  18  -11.83   10.27
   9   0  18   -6.89    9.31
   9   0  19   -2.45   10.12
   9   0  19   -2.39    8.52
   9   0  20   -2.54    9.89
   9   0  20   -4.94    9.02
   9   0  21  -10.45   11.52
   9  -1 -22    3.36    9.79
  -9  -1  22    3.59   11.54
  -9   1  22   14.24   12.72
   9   1 -21   -3.24   10.12
   9  -1 -21   -3.24    9.44
  -9  -1  21   -3.46   12.06
  -9   1  21   10.32   12.57
   9   1 -20   21.80   11.13
   9  -1 -20    3.11   10.00
  -9  -1  20    9.98   11.01
  -9   1  20   29.75   13.39
   9   1 -19   -2.97   10.63
   9  -1 -19    8.93    9.84
  -9  -1  19   12.77   11.93
  -9   1  19    9.46   11.00
   9   1 -18   42.51   12.23
   9  -1 -18   70.90   14.26
  -9  -1  18   60.96   14.94
  -9   1  18   33.14   13.40
   9  -1 -17    2.69   10.06
   9   1 -17    5.37    8.89
  -9  -1  17   17.39   11.07
  -9   1  17    2.86   10.47
   9   1 -16   61.05   12.24
   9  -1 -16   61.08   12.08
  -9  -1  16   57.62   13.69
  -9   1  16   59.43   12.80
   9   1 -15    7.19    7.92
   9  -1 -15   -2.40    7.93
  -9  -1  15   15.56   10.50
  -9   1  15    2.54    7.92
   9   1 -14   18.01    8.98
   9  -1 -14   24.77    9.16
  -9   1  14   35.49   10.94
  -9  -1  14   19.51    9.73
   9   1 -13   46.03    8.53
  -9   1  13   65.04    8.98
   9  -1 -13   54.72   10.88
   9   1 -13   23.18    8.69
  -9   1  13   54.80   10.93
  -9  -1  13   38.80   11.50
   9   1 -12   50.18    9.49
   9  -1 -12   63.44    9.74
   9   1 -12   59.02    8.82
   9  -1 -12   47.97    8.53
  -9   1  12   51.61    8.10
   9  -1 -12   43.20    9.62
   9   1 -12   53.14   10.46
  -9   1  12   44.66   10.42
  -9   1  12   77.83   13.60
  -9  -1  12   52.87   11.57
   9   1 -11   23.48    6.89
   9  -1 -11   29.63    7.28
   9   1 -11   34.84    7.02
   9  -1 -11   35.23    6.61
  -9   1  11   39.30    7.09
   9  -1 -11   25.50    8.23
   9   1 -11   25.62    7.63
  -9  -1  11   48.82   10.50
  -9   1  11   27.80    9.64
  -9   1  11   43.04    9.52
  -9   1  10   17.94    4.95
   9   1 -10   29.16    6.39
   9  -1 -10   21.71    5.82
  -9  -1  10   23.17    8.15
  -9   1  10   29.21    7.63
  -9   1  10   13.79    6.75
  -9  -1  10   39.96    9.54
   9   1 -10   30.99    6.10
   9  -1 -10   33.99    6.27
  -9   1   9  270.26   16.59
  -9   1   9  299.16   14.55
   9   1  -9  274.41   18.58
   9  -1  -9  255.97   18.10
  -9   1   9  281.96   20.99
  -9  -1   9  271.77   20.00
  -9   1   9  287.35   20.09
  -9  -1   9  269.28   20.45
   9   1  -9  271.18   17.45
   9  -1  -9  290.17   17.77
  -9  -1   9  240.16   20.77
  -9   1   9  273.65   21.95
  -9  -1   8  351.77   16.96
  -9   1   8  358.56   17.00
   9   1  -8  332.75   20.69
   9  -1  -8  346.30   20.87
  -9  -1   8  336.88   22.83
  -9  -1   8  372.76   22.85
  -9   1   8  387.63   23.90
   9  -1  -8  372.56   20.40
   9   1  -8  344.68   19.71
  -9  -1   8  363.75   23.90
  -9   1   8  364.54   23.96
  -9  -1   7  303.49   14.92
  -9   1   7  328.19   15.36
   9   1  -7  314.39   17.64
   9  -1  -7  353.00   18.54
  -9  -1   7  284.77   20.62
  -9   1   7  282.84   20.42
   9  -1  -7  330.01   18.97
   9   1  -7  324.48   18.89
  -9  -1   7  300.59   21.53
  -9   1   7  303.99   21.69
  -9  -1   7  278.75   19.75
  -9  -1   7  283.42   19.20
  -9   1   7  315.43   20.95
   9   1  -6  416.62   21.12
  -9  -1   6  421.04   24.80
   9  -1  -6  422.53   21.53
  -9   1   6  403.29   24.46
  -9   1   6  410.32   18.99
   9   1  -6  413.99   22.28
   9  -1  -6  458.37   22.78
  -9  -1   6  417.55   25.42
  -9   1   6  426.13   25.58
  -9   1   6  445.27   24.73
  -9  -1   6  432.37   23.51
  -9  -1   6  420.49   23.92
  -9   1   5  260.63   17.05
  -9  -1   5  224.83   15.60
  -9   1   5  261.01   12.68
  -9  -1   5  232.64   16.67
   9   1  -5  242.13   13.89
   9  -1  -5  268.02   14.75
  -9   1   5  244.59   16.93
   9   1  -5  226.56   14.97
   9  -1  -5  225.65   14.78
   9   1  -5  237.86   14.88
   9  -1  -5  224.59   14.56
  -9  -1   5  238.93   17.34
  -9   1   5  234.56   17.08
   9   1  -4    9.70    2.71
   9  -1  -4    3.15    2.39
  -9  -1   4    7.37    3.68
  -9   1   4    8.00    3.46
   9   1  -4    6.63    2.67
   9  -1  -4   10.38    3.22
  -9  -1   4    7.76    3.78
  -9   1   4    7.66    3.73
  -9   1   4    7.93    4.61
  -9   1   3   51.92    6.51
  -9  -1   3   52.36    6.23
   9   1  -3   44.15    5.48
   9  -1  -3   52.37    5.97
  -9  -1   3   32.94    6.01
  -9   1   3   54.51    7.12
  -9   1   3   46.14    7.44
  -9  -1   3   26.88    6.48
  -9   1   2   47.19    6.05
  -9  -1   2   59.02    6.32
   9   1  -2   66.47    6.64
   9  -1  -2   55.27    6.30
  -9  -1   2   49.25    6.68
  -9   1   2   62.42    7.20
  -9   1   2   40.25    7.11
  -9  -1   2   50.26    7.64
  -9  -1   1   -1.55    2.48
  -9   1   1   -1.75    2.64
  -9  -1   1   -1.08    3.67
  -9   1   1   -7.23    4.55
  -9  -1   1   -0.87    2.72
  -9   1   1    0.87    2.43
  -9  -1   1   -1.00    2.90
  -9   1   1    0.99    2.55
   9  -1   0  129.03   12.65
  -9  -1   0  146.70   11.39
  -9   1   0  175.34   12.12
  -9  -1   0  141.48    9.83
  -9   1   0  162.28   10.88
  -9   1   0  152.33   10.59
  -9  -1   0  147.52   10.58
  -9  -1   0  160.22   10.94
   9  -1   1   62.96    8.57
  -9  -1  -1   81.86    8.11
   9   1   1   69.93    9.04
  -9  -1  -1   77.29    7.16
  -9   1  -1   66.59    6.78
  -9  -1  -1   74.90    7.88
  -9   1  -1   73.60    7.63
  -9   1  -1   69.87    7.83
  -9  -1  -1   71.16    7.49
  -9  -1  -2  258.62   15.35
  -9  -1  -2  281.41   15.08
  -9   1  -2  248.33   14.64
  -9  -1  -2  258.49   15.55
  -9   1  -2  219.96   14.86
   9   1   2  242.90   17.16
  -9   1  -2  251.11   15.89
   9  -1   2  274.31   18.02
  -9  -1  -2  245.66   15.36
  -9  -1  -3  472.70   24.64
   9   1   3  469.63   26.11
   9  -1   3  473.58   26.15
  -9   1  -3  489.50   25.40
  -9  -1  -3  494.08   22.25
  -9  -1  -3  530.91   25.45
  -9   1  -3  516.64   25.16
  -9  -1  -3  493.39   24.60
  -9  -1  -4  463.47   24.07
  -9  -1  -4  482.30   22.04
   9   1   4  447.93   25.12
   9  -1   4  495.98   25.80
  -9  -1  -4  463.05   24.57
  -9   1  -4  456.26   25.19
  -9  -1  -4  494.78   25.08
  -9   1  -4  455.05   24.56
  -9   1  -5  717.33   32.91
  -9  -1  -5  754.17   34.56
  -9  -1  -5  737.89   32.14
   9  -1   5  740.82   36.04
   9   1   5  785.84   35.66
  -9  -1  -5  729.23   35.33
  -9   1  -5  765.49   36.46
  -9   1  -5  675.51   34.65
  -9  -1  -5  743.29   35.58
   9   1   5  785.93   35.56
   9  -1   5  741.44   35.03
  -9   1  -6  255.84   15.55
  -9  -1  -6  248.96   16.89
  -9  -1  -6  258.41   15.08
   9   1   6  243.01   16.72
   9  -1   6  272.16   17.97
  -9  -1  -6  284.08   18.91
  -9   1  -6  243.52   18.22
  -9  -1  -6  261.47   18.25
  -9   1  -6  238.65   17.74
   9   1   6  248.78   16.82
   9  -1   6  262.30   17.17
  -9   1  -7 1429.31   58.65
  -9  -1  -7 1459.23   60.67
  -9  -1  -7 1452.12   58.21
   9   1   7 1423.66   60.57
   9  -1   7 1484.92   61.70
  -9  -1  -7 1400.77   62.69
  -9   1  -7 1502.10   64.35
  -9   1  -7 1381.37   62.35
  -9  -1  -7 1394.65   62.73
   9   1   7 1427.37   60.64
   9  -1   7 1483.15   61.07
  -9  -1  -8  382.95   23.24
  -9   1  -8  390.01   21.68
  -9  -1  -8  411.84   21.43
   9  -1   8  361.80   23.04
   9   1   8  411.12   23.39
  -9  -1  -8  400.78   25.98
  -9   1  -8  371.80   26.13
   9  -1   8  402.37   23.33
  -9  -1  -8  362.05   25.74
  -9   1  -8  370.79   25.57
   9   1   8  397.80   23.34
  -9  -1  -9  995.19   45.08
  -9   1  -9  962.21   42.76
  -9  -1  -9  935.96   42.09
   9   1   9  949.62   44.59
   9  -1   9  956.46   45.20
  -9  -1  -9  977.60   49.13
  -9   1  -9  986.12   50.13
   9   1   9  962.22   44.92
   9  -1   9  962.12   44.91
  -9  -1  -9  934.74   48.41
  -9   1  -9  931.05   48.27
  -9  -1 -10  189.74   21.20
  -9   1 -10  203.32   21.36
  -9  -1 -10  231.52   15.88
   9  -1  10  250.30   18.94
   9   1  10  259.84   18.41
  -9   1 -10  224.16   16.63
  -9  -1 -10  235.53   18.44
  -9   1 -10  191.90   21.99
  -9  -1 -10  263.46   23.85
   9   1  10  261.50   18.76
   9  -1  10  247.07   18.19
  -9  -1 -11  189.32   15.13
  -9   1 -11  245.46   17.23
  -9  -1 -11  254.08   19.49
   9   1  11  213.55   17.50
   9   1  11  210.10   17.37
   9  -1  11  171.09   16.44
   9  -1  11  243.84   18.75
  -9  -1 -11  201.40   23.53
  -9  -1 -12   31.82   10.72
   9   1  12   40.67    8.71
   9  -1  12   33.73    9.06
   9   1  12   15.13    6.61
   9  -1  12   21.64    8.71
  -9  -1 -13    7.10    9.38
   9   1  13   -5.36    8.11
   9  -1  13    3.83    7.89
   9   1  13   -5.40    7.28
   9  -1  13   -1.79    6.97
   9   1  14   96.39   12.74
   9  -1  14   60.69   11.31
   9  -1  14   68.15   11.79
   9   1  14   64.67   11.47
   9   1  15   -3.99    8.38
   9  -1  15    4.25    7.94
   9   1  15   -8.02    6.81
   9  -1  15    2.00    7.46
   9   1  16    6.31    7.16
   9  -1  16   13.41    8.72
   9   1  16   29.46    9.72
   9  -1  16   14.67    8.66
   9   1  17   70.35   12.53
   9  -1  17   81.68   13.87
   9   1  17   88.18   13.79
   9  -1  17   70.31   12.75
   9   1  18   -2.29    8.17
   9  -1  18   -4.87    8.70
   9   1  18    6.89    8.39
   9  -1  18   11.45    9.27
   9   1  19   80.99   13.78
   9  -1  19   60.56   13.60
   9   1  19   69.12   13.78
   9  -1  19   99.90   15.63
   9   1  20   29.53   11.53
   9  -1  20   15.63   10.57
   9   1  20   27.12   10.89
   9  -1  20    7.38    9.02
   9   1  21    2.53    9.88
   9  -1  21   13.42   10.46
   9   2 -22   53.52   14.37
   9  -2 -22   36.62   13.07
  -9   2  22   49.60   15.70
   9   2 -21    3.22   10.05
   9  -2 -21   -6.42   11.74
  -9   2  21   -3.42   13.33
   9  -2 -20    3.09    9.92
   9   2 -20    6.18    8.69
  -9  -2  20    6.70   11.09
  -9   2  20    9.87   10.57
   9   2 -19   -5.91    8.62
   9  -2 -19   -5.90   10.54
  -9  -2  19    3.21   11.19
  -9   2  19    9.44   11.50
   9  -2 -18  -22.49   10.74
   9   2 -18   -2.81    9.30
  -9  -2  18   12.26   12.87
  -9   2  18   -9.00   11.70
   9   2 -17    2.66    8.81
   9  -2 -17   -5.34    7.79
  -9  -2  17   -5.84   10.92
  -9   2  17   14.25    9.68
   9  -2 -16  587.43   38.09
   9   2 -16  616.34   38.43
  -9  -2  16  569.40   39.43
  -9   2  16  625.21   39.76
   9  -2 -15    7.12    8.07
   9   2 -15    7.10    8.26
  -9   2  15   10.04    8.07
  -9  -2  15   10.49   10.42
  -9   2  14   87.81   10.92
   9   2 -14   80.08   12.68
   9  -2 -14  100.16   14.57
  -9   2  14  107.75   15.18
  -9  -2  14  101.06   16.62
   9   2 -13   -4.52    5.12
  -9   2  13    4.32    5.50
   9  -2 -13   -6.23    7.24
   9   2 -13    2.08    7.26
  -9   2  13   -8.72    8.15
  -9  -2  13    2.31    9.36
   9   2 -12    3.30    4.97
   9  -2 -12   -1.64    4.62
   9   2 -12   -4.23    5.04
  -9   2  12    5.45    5.31
   9   2 -12   -5.83    7.26
  -9   2  12   -6.07    7.22
  -9  -2  12   -4.31    8.73
  -9   2  12    2.33    6.81
  -9   2  11  289.99   18.73
  -9   2  11  250.88   15.48
   9  -2 -11  283.56   18.74
   9  -2 -11  333.31   22.53
   9   2 -11  244.08   20.10
   9   2 -11  263.77   19.34
   9  -2 -11  290.64   19.77
  -9  -2  11  292.04   22.96
   9   2 -11  256.77   17.93
  -9   2  11  279.01   21.31
  -9   2  11  291.45   23.25
  -9   2  10   -0.81    3.10
  -9   2  10   -2.47    4.40
   9   2 -10   -4.31    4.61
   9  -2 -10   -1.42    3.98
  -9   2  10   -2.00    7.65
  -9   2  10   -1.74    5.41
  -9  -2  10    7.37    6.26
   9   2 -10   -2.42    4.11
   9  -2 -10    3.78    3.81
  -9   2   9  131.14   10.08
   9  -2  -9  139.92   11.80
   9   2  -9  149.16   12.13
  -9  -2   9  146.12   15.00
  -9   2   9  164.17   15.79
   9   2  -9  137.91   12.47
   9  -2  -9  144.64   12.74
  -9   2   8   18.67    6.37
   9  -2  -8   20.46    4.48
  -9  -2   8   22.11    8.30
  -9   2   8    8.48    6.76
   9   2  -8   18.03    4.52
  -9   2   8   17.78    4.13
  -9  -2   8   21.23    6.61
  -9  -2   8   24.99    7.33
   9   2  -8   13.43    4.50
   9  -2  -8   11.95    4.79
  -9  -2   7    6.21    6.28
   9  -2  -7    2.99    2.81
  -9   2   7    4.61    6.34
  -9   2   7    9.30    5.13
   9   2  -7    3.59    2.52
  -9   2   7    0.74    2.81
  -9  -2   7    5.43    4.85
  -9  -2   7   11.27    5.91
   9   2  -7    8.92    3.89
  -9  -2   7   -1.74    5.76
   9  -2  -7    2.17    3.69
  -9   2   7    1.73    5.71
  -9  -2   6  337.82   21.07
  -9  -2   6  371.54   21.31
  -9   2   6  366.69   22.47
  -9   2   6  376.66   18.21
   9   2  -6  374.67   18.79
   9  -2  -6  360.36   19.29
  -9  -2   6  339.35   22.20
  -9   2   6  381.36   22.80
   9  -2  -6  369.32   20.27
   9   2  -6  372.98   20.65
   9   2  -6  323.34   19.34
   9  -2  -6  352.20   19.59
  -9  -2   6  317.60   22.27
  -9   2   6  342.21   22.79
   9  -2  -5   22.23    4.47
   9   2  -5   22.54    4.76
  -9  -2   5   21.73    5.82
  -9   2   5   36.79    6.94
  -9  -2   5   20.12    2.42
  -9   2   5   29.95    4.49
  -9   2   5   32.03    6.87
   9   2  -5   33.08    4.47
  -9  -2   5   25.99    5.64
   9  -2  -5   31.20    4.90
  -9   2   5   17.08    4.77
  -9  -2   5   30.02    6.73
   9   2  -5   20.20    4.53
   9  -2  -5   25.89    4.86
  -9   2   5   20.41    5.86
  -9  -2   5   27.62    5.56
  -9  -2   4  285.08   16.85
  -9  -2   4  285.44   16.37
  -9   2   4  283.86   17.87
  -9  -2   4  277.51   17.91
  -9   2   4  264.59   17.46
   9   2  -4  254.54   14.00
  -9   2   4  265.72   17.86
   9   2  -4  275.25   16.12
   9  -2  -4  273.76   15.97
  -9  -2   4  272.86   18.27
  -9   2   4  278.76   18.04
  -9  -2   3  128.97   10.21
  -9  -2   3  139.55   10.26
  -9   2   3  148.59   11.68
  -9  -2   3  141.11   13.02
  -9   2   3  130.63   11.56
  -9  -2   3  140.20   11.80
  -9   2   3  142.32   11.78
   9   2  -3  129.57   10.07
   9  -2  -3  143.00   10.38
  -9  -2   2  571.18   22.99
  -9  -2   2  612.23   27.83
  -9  -2   2  649.06   28.01
  -9   2   2  568.49   28.48
  -9  -2   2  648.00   31.18
  -9   2   2  605.00   29.54
   9   2  -2  656.32   28.63
   9  -2  -2  630.33   28.36
  -9  -2   2  573.45   29.16
  -9   2   2  636.59   29.69
  -9  -2   1   13.14    3.95
  -9   2   1    2.98    2.91
  -9  -2   1    6.70    1.91
  -9  -2   1    7.68    3.94
  -9  -2   1    9.60    2.83
  -9   2   1    7.52    3.28
  -9  -2   1    7.64    3.91
  -9   2   1    5.08    4.19
  -9  -2   1    7.09    3.02
  -9   2   1    5.23    3.05
  -9  -2   0  948.85   39.59
  -9  -2   0  909.27   37.41
  -9   2   0  885.43   39.10
  -9   2   0  948.54   40.32
   9  -2   0  935.24   43.36
  -9  -2   0  924.70   39.87
  -9  -2   0  915.54   35.26
  -9   2   0  884.20   38.62
  -9  -2   0  855.28   38.41
  -9  -2  -1   66.85    7.94
  -9  -2  -1   74.17    5.60
   9  -2   1   68.17    9.05
   9   2   1   61.03    8.71
  -9  -2  -1   64.93    7.22
  -9   2  -1   67.02    7.95
  -9  -2  -1   65.89    6.67
  -9   2  -1   78.79    7.27
  -9  -2  -1   60.57    7.35
  -9   2  -1   54.15    6.97
  -9   2  -2  246.91   16.01
   9   2   2  235.24   17.37
   9  -2   2  276.47   17.88
  -9  -2  -2  248.72   15.26
  -9  -2  -2  262.79   13.26
  -9   2  -2  261.47   15.57
  -9  -2  -2  240.70   14.32
  -9   2  -2  230.61   14.44
  -9  -2  -2  276.99   16.07
  -9  -2  -2  256.90   16.05
  -9  -2  -3  301.24   18.00
  -9  -2  -3  284.36   14.89
  -9   2  -3  287.47   18.23
  -9   2  -3  301.84   17.56
  -9  -2  -3  290.71   17.41
   9   2   3  289.12   18.85
   9  -2   3  271.21   18.37
  -9  -2  -3  309.57   17.46
  -9  -2  -4  101.15    8.11
  -9  -2  -4  103.22   10.50
   9   2   4  107.87   10.56
   9  -2   4  119.89   11.01
  -9  -2  -4  108.94   10.23
  -9   2  -4  102.56   10.89
  -9   2  -4  102.09   10.01
  -9  -2  -4  112.09   10.62
  -9  -2  -5  174.75   14.04
  -9  -2  -5  184.31   11.70
   9  -2   5  190.78   14.39
   9   2   5  161.63   13.07
  -9  -2  -5  167.34   13.66
  -9   2  -5  163.74   14.68
  -9  -2  -5  189.84   14.68
  -9   2  -5  178.39   14.01
   9   2   5  163.30   13.02
   9  -2   5  186.47   13.76
  -9  -2  -6  169.92   14.46
   9   2   6  168.91   12.89
  -9  -2  -6  174.72   11.89
   9  -2   6  176.74   14.20
   9   2   6  184.26   13.76
  -9  -2  -6  179.44   14.71
  -9   2  -6  153.59   15.29
  -9  -2  -6  183.75   15.35
  -9   2  -6  167.53   14.42
   9   2   6  143.23   12.52
   9  -2   6  181.97   13.71
  -9  -2  -7  138.55   14.77
  -9   2  -7  132.25   14.36
   9   2   7  139.04   11.99
  -9   2  -7  137.29   10.99
  -9  -2  -7  139.12   13.74
  -9  -2  -7  147.78   11.12
   9   2   7  127.73   11.75
   9  -2   7  161.65   13.60
  -9  -2  -7  144.23   14.15
  -9   2  -7  164.17   15.98
   9   2   7  117.03   11.57
   9  -2   7  144.40   12.51
  -9  -2  -8   24.07   10.89
  -9   2  -8   51.96   11.32
  -9   2  -8   52.66    7.59
   9   2   8   63.91    8.62
  -9  -2  -8   45.42    6.99
  -9  -2  -8   59.58   10.55
   9   2   8   57.16    8.15
   9  -2   8   65.64    9.22
  -9  -2  -8   76.63   12.33
  -9   2  -8   52.71   11.24
   9   2   8   49.96    7.84
   9  -2   8   64.18    8.75
  -9  -2  -9   -3.81   11.11
  -9   2  -9    5.57   11.57
  -9   2  -9    1.01    5.52
   9   2   9    3.76    4.79
  -9  -2  -9    4.33    3.96
  -9  -2  -9   17.14    8.76
   9   2   9    4.02    4.78
   9  -2   9    9.27    5.77
  -9  -2  -9   -7.49   12.38
  -9   2  -9  -16.63   12.86
   9   2   9   -1.40    5.76
   9  -2   9   -1.39    5.30
  -9  -2 -10    2.10   11.34
  -9   2 -10    2.05   12.77
  -9  -2 -10   17.36    5.26
  -9   2 -10   11.84    6.22
   9   2  10    7.80    5.27
  -9   2 -10  -11.39   13.98
  -9  -2 -10   -4.16   12.25
   9   2  10    4.26    5.43
   9  -2  10   31.18    8.19
   9   2  10    7.44    6.36
   9  -2  10   -4.43    5.87
  -9  -2 -10   -1.66    9.50
   9   2  11  142.62   13.53
   9  -2  11  178.15   16.66
  -9  -2 -11  180.73   21.92
   9  -2  11  157.25   14.98
   9   2  11  126.95   13.83
  -9  -2 -11  133.94   16.45
   9   2  11  190.43   15.72
   9   2  12    6.75    6.60
   9  -2  12    8.35    6.26
   9   2  12   25.05    7.37
   9   2  12   25.69    7.31
   9  -2  12    7.40    7.65
  -9  -2 -12   17.44   13.74
   9   2  13   57.33   10.42
   9  -2  13   49.64    9.54
   9   2  13   51.60    8.91
   9   2  13   44.39    9.10
   9  -2  13   56.89   11.06
   9   2  14   22.74    8.14
   9  -2  14   26.26    8.44
   9   2  14   26.48    7.39
   9   2  14   30.76    8.51
   9  -2  14   18.65    8.74
   9  -2  15   21.77    8.52
   9   2  15   25.96    9.41
   9   2  15   55.77    9.10
   9   2  15   36.30    9.25
   9  -2  15   23.94    9.81
   9  -2  16  208.02   19.90
   9   2  16  199.03   19.41
   9   2  16  228.00   17.91
   9   2  16  230.48   19.78
   9  -2  16  210.24   20.69
   9   2  17    6.32    8.37
   9  -2  17    4.77    9.48
   9   2  17   -2.19    8.02
   9  -2  17   -2.18    8.14
   9   2  18   78.93   12.97
   9  -2  18   54.55   12.56
   9   2  18   57.07   11.73
   9  -2  18   59.02   11.93
   9   2  19   15.92    9.04
   9  -2  19   -5.15    9.63
   9   2  19    9.48    9.42
   9  -2  19    4.72    8.43
   9   2  20    2.35    8.19
   9  -2  20    5.32    9.50
   9   2  20   -2.45    8.94
   9  -2  20    2.44    8.29
   9   3 -22   -3.30   11.78
   9  -3 -22   -3.27   11.69
  -9   3  22    7.05   11.65
   9   3 -21   -3.17   10.19
   9  -3 -21   -3.16   10.45
  -9   3  21   10.22   12.17
   9   3 -20   54.74   13.46
   9  -3 -20   21.25    9.83
  -9   3  20   42.55   14.93
   9   3 -19   43.54   12.47
   9  -3 -19   52.23   12.87
  -9   3  19   25.12   13.02
   9  -3 -18  116.17   17.39
   9   3 -18  121.25   17.46
  -9   3  18   89.76   16.76
   9  -3 -17   68.15   13.47
   9   3 -17   73.09   14.02
  -9  -3  17   73.52   15.58
  -9   3  17   70.82   14.18
   9   3 -16    2.46    7.68
  -9   3  16    1.83    6.20
  -9   3  16    2.66    8.30
  -9  -3  16    5.58   10.20
   9  -3 -16   -9.90    9.45
  -9   3  15   40.34    8.69
   9  -3 -15   27.92    8.93
   9   3 -15   13.90    7.92
  -9   3  15   34.97   10.70
  -9  -3  15   10.54   10.51
   9   3 -14  247.63   21.40
   9  -3 -14  221.83   20.67
  -9   3  14  233.31   18.60
  -9  -3  14  240.96   23.19
  -9   3  14  215.24   21.24
   9   3 -13  103.05   11.64
  -9   3  13   92.86   11.74
   9  -3 -13  107.54   13.85
   9   3 -13   89.33   13.21
  -9   3  13   98.26   14.24
  -9  -3  13  102.67   15.91
  -9   3  13   93.71   15.67
   9   3 -12    1.60    6.38
   9  -3 -12   -3.19    6.80
  -9   3  12    2.12    3.61
  -9   3  12    7.66    5.85
   9   3 -12    8.25    6.06
   9   3 -12   -3.79    7.68
   9  -3 -12    1.88    6.88
  -9   3  12    9.52    8.90
  -9   3  12    6.10    7.09
  -9  -3  12    6.54    8.50
  -9   3  11   16.12    6.06
   9   3 -11    3.81    4.68
   9  -3 -11   10.67    4.79
  -9   3  11   19.48    4.89
   9   3 -11   19.50    6.10
   9  -3 -11   16.27    5.90
  -9   3  11   24.40    9.79
  -9  -3  11   14.16    9.47
  -9   3  11   24.68    7.85
  -9   3  10   18.32    6.15
   9  -3 -10   22.47    5.37
  -9   3  10   26.65    9.20
   9   3 -10   17.47    5.10
  -9   3  10   16.11    4.94
   9  -3 -10   15.05    5.48
   9   3 -10   20.88    5.98
  -9  -3  10   24.23    9.66
   9  -3  -9   17.38    4.95
  -9   3   9   34.09    8.65
   9   3  -9   27.51    5.60
  -9   3   9   27.92    5.18
   9   3  -9   25.84    5.86
   9  -3  -9   28.94    5.95
  -9  -3   9   29.08    8.58
  -9   3   8  287.74   16.96
   9   3  -8  335.54   19.43
   9  -3  -8  313.30   18.67
  -9  -3   8  266.44   20.31
  -9   3   8  300.64   21.46
   9   3  -8  266.90   16.73
   9  -3  -8  315.86   18.25
  -9  -3   8  277.52   21.54
  -9   3   8  291.60   21.89
  -9   3   7  143.85   10.82
  -9  -3   7  141.05   10.18
   9   3  -7  153.15   10.89
   9  -3  -7  156.94   11.46
  -9  -3   7  145.47   14.21
  -9   3   7  139.57   13.84
   9   3  -7  125.82   11.02
   9  -3  -7  131.16   10.86
  -9  -3   7  142.02   13.39
  -9   3   7  122.43   12.89
  -9  -3   7  149.18   13.27
  -9  -3   6    1.23    4.30
  -9  -3   6    5.01    4.47
  -9  -3   6    0.76    3.58
  -9   3   6   -0.90    2.53
   9   3  -6   -1.48    2.08
   9  -3  -6   -1.89    2.44
  -9   3   6    1.48    3.65
  -9  -3   6   -1.45    4.92
  -9   3   6   -1.42    5.08
  -9   3   6    2.65    4.74
   9   3  -6   -1.99    3.20
  -9  -3   6    4.85    5.19
  -9   3   6   -1.59    4.96
   9   3  -6    1.08    2.78
   9  -3  -6   -4.19    3.46
  -9   3   5  168.44   13.58
  -9  -3   5  129.91   11.44
  -9  -3   5  142.30   11.61
  -9  -3   5  152.96   10.59
  -9   3   5  158.72   11.16
  -9  -3   5  150.31   13.04
   9   3  -5  127.91    9.02
  -9   3   5  154.12   13.25
   9  -3  -5  166.75   11.30
  -9   3   5  108.52   11.47
  -9  -3   5  139.06   13.08
  -9   3   5  136.80   12.93
   9   3  -5  155.50   11.34
   9  -3  -5  128.46   10.38
  -9  -3   4  373.92   20.46
  -9  -3   4  368.64   20.34
  -9  -3   4  365.95   19.46
  -9   3   4  380.12   22.18
  -9  -3   4  357.79   21.71
  -9   3   4  366.18   21.57
   9   3  -4  410.45   18.11
  -9   3   4  398.61   22.27
  -9  -3   4  375.06   22.62
  -9   3   4  371.00   22.17
   9   3  -4  354.20   19.71
   9  -3  -4  393.02   20.16
  -9  -3   3  112.57    9.61
  -9  -3   3  112.37    9.64
  -9  -3   3  135.32   10.61
  -9   3   3  121.33   11.07
  -9  -3   3  162.27   14.18
  -9   3   3  130.31   11.39
  -9   3   3  137.47   11.70
  -9  -3   3  146.71   12.25
   9   3  -3  153.22   10.64
   9  -3  -3  148.22   10.67
  -9  -3   2 1507.71   58.97
  -9  -3   2 1493.60   60.74
  -9   3   2 1438.11   61.71
  -9  -3   2 1509.01   59.65
  -9  -3   2 1675.11   64.34
  -9   3   2 1530.52   61.96
   9  -3  -2 1563.98   60.76
   9   3  -2 1514.72   60.49
  -9  -3   2 1543.88   62.52
  -9   3   2 1417.69   61.57
  -9  -3   1    6.24    3.64
  -9   3   1    8.06    3.78
  -9  -3   1    8.63    2.99
  -9  -3   1    3.84    4.56
  -9  -3   1    7.05    2.06
  -9  -3   1    9.77    3.14
  -9   3   1    5.03    3.05
  -9  -3   1   15.17    4.78
  -9   3   1   13.11    4.39
  -9  -3   1    6.34    3.32
  -9   3   1    8.80    3.30
  -9  -3   0  227.36   15.37
  -9  -3   0  252.20   12.99
  -9   3   0  216.96   14.44
   9  -3   0  268.52   18.37
  -9   3   0  257.03   15.59
  -9  -3   0  227.19   14.63
  -9  -3   0  206.63   11.42
  -9  -3   0  219.16   13.80
  -9   3   0  227.25   13.93
  -9  -3   0  229.12   14.59
  -9   3   0  217.46   14.04
  -9  -3  -1  224.59   15.61
  -9  -3  -1  223.27   12.28
   9  -3   1  234.80   17.27
  -9   3  -1  242.50   15.39
  -9  -3  -1  229.63   14.32
  -9  -3  -1  235.02   12.21
  -9  -3  -1  226.08   13.71
  -9   3  -1  223.28   13.69
  -9  -3  -1  215.87   14.23
  -9   3  -1  219.79   14.15
  -9  -3  -2  363.24   21.57
  -9  -3  -2  369.25   17.86
   9   3   2  331.40   21.81
   9  -3   2  401.99   23.20
  -9  -3  -2  371.76   20.01
  -9   3  -2  373.45   21.26
  -9  -3  -2  368.70   20.33
  -9   3  -2  403.20   19.87
  -9   3  -2  380.74   20.27
  -9  -3  -2  369.48   19.25
  -9  -3  -3  601.90   30.18
   9   3   3  599.01   28.71
  -9  -3  -3  614.96   26.14
  -9  -3  -3  536.42   27.16
   9   3   3  540.61   29.86
   9  -3   3  592.99   30.49
  -9   3  -3  583.95   29.75
  -9  -3  -3  589.24   28.60
  -9   3  -3  551.55   27.91
  -9   3  -3  606.23   27.70
  -9  -3  -3  565.08   26.74
   9   3   4  160.04   12.15
  -9  -3  -4  141.40   13.26
  -9  -3  -4  134.07    9.78
   9   3   4  142.80   12.35
   9  -3   4  155.46   13.07
  -9  -3  -4  133.41   11.30
  -9   3  -4  103.90   11.76
  -9  -3  -4  110.81   11.21
  -9   3  -4  127.14   11.51
   9   3   5   55.87    7.81
  -9  -3  -5   52.40    6.17
   9   3   5   52.79    7.70
  -9  -3  -5   37.20    8.32
   9  -3   5   47.71    7.68
  -9   3  -5   56.79   10.07
  -9  -3  -5   55.40    8.33
  -9  -3  -5   57.98    8.76
  -9   3  -5   67.17    9.17
  -9  -3  -6    4.25    6.34
  -9   3  -6    4.11    6.40
   9   3   6   -1.22    5.11
  -9  -3  -6    1.78    2.94
  -9  -3  -6    2.93    7.59
   9   3   6    1.19    3.95
  -9  -3  -6   10.26    6.56
   9  -3   6    5.46    4.39
  -9   3  -6   -1.61    8.06
   9   3   6    3.60    4.07
   9  -3   6   -2.41    3.98
  -9   3  -7   89.02   12.93
  -9  -3  -7   66.63   12.01
   9   3   7  104.41   11.09
  -9  -3  -7   76.95    8.36
  -9  -3  -7   94.28   12.87
   9   3   7   85.38    9.88
   9  -3   7   89.85   10.66
  -9  -3  -7   75.82   11.17
  -9   3  -7   93.13   13.82
   9   3   7   98.68   10.54
   9  -3   7  118.47   11.01
  -9   3  -8  354.17   18.85
   9   3   8  324.70   20.84
  -9  -3  -8  347.31   24.15
  -9  -3  -8  301.10   18.52
   9   3   8  340.28   20.42
   9  -3   8  300.40   21.25
  -9  -3  -8  354.90   24.00
  -9   3  -8  318.78   25.45
   9   3   8  296.13   19.97
   9  -3   8  375.36   21.54
  -9  -3  -8  294.89   23.80
  -9   3  -8  329.18   24.00
  -9  -3  -9    3.90   10.65
  -9   3  -9   -7.54   11.57
   9   3   9    1.38    4.94
  -9  -3  -9    5.53    4.13
  -9  -3  -9   -1.76   10.29
  -9  -3  -9    5.56   10.90
  -9   3  -9   -6.53   13.26
   9   3   9   -1.28    4.58
   9  -3   9    9.53    6.07
   9   3   9   -6.94    6.67
   9  -3   9   -1.38    5.47
  -9  -3 -10   97.67   10.34
   9   3  10   81.85   10.57
   9   3  10  108.22   11.41
   9  -3  10  114.51   12.72
   9   3  10   84.19   11.44
   9  -3  10   71.46   10.35
  -9  -3 -10   84.03   16.59
  -9   3 -10  101.98   17.16
   9   3  11   11.00    6.62
   9  -3  11   13.94    6.95
   9   3  11   13.42    6.70
   9   3  11   17.17    6.13
   9  -3  11   23.19    7.51
   9  -3  12   26.34    7.97
   9   3  12   31.77    7.88
   9   3  12   18.49    7.17
   9   3  12   30.37    7.55
   9  -3  12   47.21    9.92
   9   3  13    1.77    6.49
   9  -3  13    1.75    5.93
   9   3  13   -1.59    6.18
   9   3  13    3.22    4.85
   9  -3  13    2.00    8.94
   9   3  14   16.88    7.80
   9  -3  14   29.55    8.45
   9   3  14   40.57    8.54
   9   3  14   35.79    8.56
   9  -3  14   16.87    9.05
   9   3  15   -7.91    8.01
   9  -3  15   -5.85    8.46
   9   3  15    9.97    6.60
   9   3  15   -1.80    5.95
   9  -3  15   -4.44    9.47
   9   3  16    8.29    8.08
   9  -3  16    2.05    7.49
   9   3  16    1.70    6.06
   9   3  16    7.54    7.05
   9  -3  16   -6.97    9.23
   9  -3  17   60.08   12.38
   9   3  17   60.73   12.16
   9   3  17   65.38   11.04
   9  -3  17   70.45   13.70
   9   3  18   83.51   13.44
   9  -3  18   64.85   11.99
   9  -3  19   39.23   11.50
   9  -3  19   55.80   11.89
   9   3  19   72.49   13.65
   9  -3  20   67.45   14.07
   9   3  20   41.03   12.04
   9  -3  20   52.93   12.85
   9  -4 -22   15.88   10.81
   9   4 -21   49.19   14.05
   9  -4 -21   36.83   12.29
  -9   4  21   44.04   14.30
   9  -4 -20   23.59   10.56
   9   4 -20   17.67   10.03
  -9   4  20   22.80   13.21
   9  -4 -19   -5.64    9.06
   9   4 -19    2.80    9.27
  -9   4  19   -3.12    9.43
  -9   4  18   -5.95    9.83
   9   4 -18   -2.66    8.30
   9  -4 -18   -2.68    7.83
  -9   4  17  187.06   18.33
  -9   4  17  208.49   22.23
   9   4 -17  186.18   20.09
   9  -4 -17  198.37   20.95
  -9   4  16   -3.97    7.10
   9   4 -16    2.37    8.67
   9  -4 -16   -2.40    8.15
  -9   4  16   -2.65    8.53
   9   4 -15  216.12   20.30
   9  -4 -15  188.97   19.32
  -9   4  15  207.48   21.11
  -9   4  15  182.02   17.62
   9   4 -14   10.44    7.46
   9  -4 -14    2.10    7.68
  -9   4  14    7.04    7.55
  -9   4  14   11.02    6.25
   9  -4 -13   -1.96    6.99
   9   4 -13   -5.86    7.61
  -9  -4  13    4.67    8.14
  -9   4  13    2.20    6.86
  -9   4  13   10.33    8.78
  -9   4  13   -1.77    5.84
  -9   4  13    6.35    4.75
  -9   4  12  309.46   19.24
  -9   4  12  283.45   21.43
  -9  -4  12  291.87   24.29
  -9   4  12  289.17   23.15
  -9   4  12  299.52   24.99
   9  -4 -12  283.86   20.28
   9   4 -12  297.75   20.40
  -9   4  11  260.33   19.25
  -9   4  11  230.59   16.16
   9   4 -11  218.04   17.10
   9  -4 -11  222.11   17.17
  -9   4  11  235.82   21.94
  -9  -4  11  242.49   21.11
   9   4 -10  355.72   21.47
   9  -4 -10  298.31   20.17
  -9  -4  10  298.08   23.69
  -9   4  10  297.44   24.10
   9  -4 -10  347.10   20.55
  -9   4   9    8.13    4.27
   9  -4  -9   10.81    4.41
   9   4  -9    8.63    4.32
  -9  -4   9   18.79    8.43
  -9   4   9   29.32    8.49
   9  -4  -9   19.58    4.94
  -9   4   8   63.90    7.59
   9  -4  -8   61.50    7.41
  -9   4   8   52.52    9.07
   9   4  -8   36.32    6.40
   9  -4  -8   37.24    6.07
  -9  -4   8   34.19    9.13
  -9  -4   7  306.53   20.03
  -9   4   7  310.15   21.22
  -9   4   7  272.56   17.20
   9  -4  -7  285.98   17.00
  -9  -4   7  296.01   21.25
  -9   4   7  288.63   20.82
  -9   4   7  264.11   18.60
   9   4  -7  262.70   16.88
   9  -4  -7  280.85   16.90
   9   4  -7  279.73   17.53
   9  -4  -7  258.85   16.83
  -9  -4   6  283.13   18.81
  -9   4   6  269.52   19.54
  -9  -4   6  269.45   18.09
  -9   4   6  272.33   17.17
   9  -4  -6  287.52   16.85
  -9  -4   6  260.22   19.26
  -9   4   6  273.07   19.62
  -9   4   6  279.45   18.59
   9   4  -6  308.01   17.14
   9  -4  -6  312.82   17.13
  -9  -4   6  252.42   19.88
  -9   4   6  277.25   20.31
   9   4  -6  293.36   17.24
   9  -4  -6  263.70   16.56
  -9  -4   5   48.24    7.99
  -9  -4   5   55.24    7.84
  -9   4   5   51.67    6.85
  -9  -4   5   46.14    7.91
  -9   4   5   59.62    9.00
   9   4  -5   57.76    5.29
  -9   4   5   34.48    7.39
  -9  -4   5   49.10    7.10
  -9   4   5   54.96    7.73
  -9  -4   5   58.89    9.22
  -9   4   5   54.56    8.48
   9   4  -5   43.97    6.02
   9  -4  -5   56.62    6.60
  -9  -4   4  142.44   10.88
  -9  -4   4  125.61   10.98
  -9   4   4  159.17   12.11
  -9  -4   4  150.19   11.62
  -9   4   4  141.82   11.94
   9   4  -4  138.04   10.63
   9  -4  -4  144.51   10.61
  -9  -4   4  116.03   12.15
  -9   4   4  125.44   12.34
  -9   4   4  164.77   13.19
  -9  -4   4  120.11   12.09
  -9   4   4  141.30   12.40
  -9   4   3   16.18    4.88
  -9  -4   3   17.12    4.39
  -9  -4   3   17.39    4.98
   9   4  -3   19.54    3.95
   9  -4  -3   19.89    3.96
  -9  -4   3   16.81    5.79
  -9  -4   3   16.47    6.17
  -9   4   3    5.32    4.35
  -9  -4   3   16.47    4.66
  -9   4   3   19.43    5.30
  -9  -4   2    7.91    3.10
  -9   4   2   11.60    3.96
   9   4  -2   13.96    2.31
  -9  -4   2    8.41    5.20
  -9  -4   2   18.08    5.73
  -9   4   2   13.39    4.97
  -9  -4   2   12.78    4.55
  -9   4   2   10.00    4.08
  -9   4   1   43.70    6.28
  -9  -4   1   46.38    5.38
   9   4  -1   40.66    4.06
  -9  -4   1   55.90    8.32
  -9  -4   1   39.97    6.74
  -9   4   1   52.05    7.20
  -9  -4   1   49.33    6.61
  -9   4   1   45.24    6.40
  -9   4   0   -0.98    3.24
  -9  -4   0    1.01    3.04
   9   4   0    2.93    2.12
  -9  -4   0    3.53    2.29
  -9   4   0    2.11    2.97
  -9  -4   0    4.74    5.69
   9  -4   0    3.04    4.74
  -9  -4   0   -2.78    3.89
  -9   4   0    3.14    4.16
  -9  -4   0   -0.88    3.37
  -9   4   0   -0.86    3.21
  -9  -4   0    0.92    4.64
  -9   4   0    4.32    3.75
   9   4   1  590.18   27.80
  -9  -4  -1  532.34   28.85
  -9  -4  -1  500.13   23.36
  -9  -4  -1  563.67   26.29
   9  -4   1  513.55   29.60
  -9   4  -1  531.72   27.51
   9   4   1  574.65   23.94
  -9  -4  -1  534.83   25.74
  -9   4  -1  571.50   26.09
  -9  -4  -1  586.19   27.05
  -9   4  -1  544.26   26.20
  -9  -4  -2  141.20    9.54
   9   4   2  126.54    8.74
  -9  -4  -2  109.79   12.28
   9  -4   2  137.71   13.00
  -9  -4  -2  132.64   10.32
   9   4   2  127.22   11.11
  -9   4  -2  135.88   12.28
  -9  -4  -2  110.36   10.23
  -9   4  -2  122.73   10.55
  -9  -4  -2  128.93    9.66
  -9   4  -2  136.70    9.99
  -9  -4  -3  190.94   12.46
   9   4   3  195.82   11.94
  -9  -4  -3  210.89   16.76
   9   4   3  202.49   14.72
   9   4   3  197.45   15.45
   9  -4   3  193.79   15.42
  -9  -4  -3  183.77   13.07
  -9   4  -3  184.26   15.21
  -9  -4  -3  207.31   14.55
  -9   4  -3  203.89   14.23
  -9  -4  -3  200.56   12.76
  -9   4  -3  212.53   13.27
   9   4   4   77.56    7.17
  -9  -4  -4   69.68    7.22
   9   4   4   78.55    9.28
  -9   4  -4   82.47    9.58
   9   4   4   60.02    8.88
  -9  -4  -4   74.38   11.08
   9  -4   4   95.45   10.45
  -9   4  -4   66.50   10.42
  -9  -4  -4   66.63    8.73
  -9  -4  -4   65.65    9.13
  -9  -4  -5   39.93    5.94
   9   4   5   49.03    8.18
  -9  -4  -5   47.09    8.48
  -9   4  -5   37.83    8.30
  -9  -4  -5   46.73   11.26
   9   4   5   47.57    7.97
   9  -4   5   56.52    8.59
  -9   4  -5   18.75    8.13
  -9  -4  -5   45.42    6.96
  -9  -4  -6    2.92    3.39
   9   4   6    2.71    5.28
  -9  -4  -6   -4.40    8.33
  -9   4  -6    1.41    7.47
  -9  -4  -6   -1.69    8.96
   9   4   6   -1.24    4.10
   9  -4   6   -1.41    4.67
  -9   4  -6    1.73    7.74
  -9  -4  -6    5.39    4.83
  -9  -4  -7   54.94    8.27
  -9  -4  -7   57.67    7.48
   9   4   7   82.32   10.59
  -9  -4  -7   55.70   11.96
  -9   4  -7   47.40   10.80
   9   4   7   71.79    9.09
  -9  -4  -7   53.61   13.09
   9  -4   7   42.58    8.44
  -9   4  -7   82.12   13.15
   9   4   7   70.16    9.25
   9  -4   7   59.99    8.64
  -9  -4  -8   26.41    7.29
  -9  -4  -8    9.09   10.70
  -9   4  -8    5.25   10.22
  -9  -4  -8   24.03    5.86
   9   4   8   13.30    6.93
   9   4   8   18.32    6.19
   9  -4   8   20.03    6.92
  -9   4  -8    2.10   11.79
   9   4   8   14.37    6.13
   9  -4   8    2.59    5.46
  -9  -4  -9  106.76   10.53
  -9  -4  -9   87.47   11.07
   9   4   9  100.15   12.25
  -9  -4  -9  102.49   16.66
  -9   4  -9   98.64   15.85
   9   4   9   86.84   10.23
   9  -4   9  102.36   12.04
   9   4   9   83.95   10.67
   9  -4   9   73.41   10.00
   9   4  10  114.97   13.18
  -9  -4 -10  115.45   18.54
  -9   4 -10   91.97   16.69
   9  -4  10  146.02   14.58
   9   4  10  119.81   11.76
   9  -4  10  119.00   12.39
   9   4  10  116.60   12.57
  -9  -4 -10  121.71   12.91
   9   4  11   46.38    8.95
   9  -4  11   51.58    9.02
   9  -4  11   50.79   10.06
   9   4  11   56.11    9.96
   9  -4  12  360.55   25.76
   9  -4  12  403.89   25.06
   9   4  12  349.47   23.80
   9   4  12  369.25   24.85
   9  -4  13   28.34    9.13
   9   4  13   22.61    8.09
   9  -4  13   37.50    9.27
   9   4  13   36.75    9.31
   9  -4  14   19.20    8.00
   9   4  14   16.53    8.12
   9  -4  14    7.21    7.46
   9   4  14   39.36    9.58
   9  -4  15  235.62   21.33
   9   4  15  177.98   18.39
   9  -4  15  207.17   18.66
   9   4  15  230.41   19.31
   9  -4  16    2.35    8.21
   9   4  16   -2.03    8.07
   9  -4  16   -2.00    6.97
   9   4  16    5.60    6.66
   9  -4  17  166.80   19.58
   9   4  17  171.54   18.17
   9  -4  17  167.34   18.05
   9   4  17  179.41   17.58
   9  -4  18   25.46   10.56
   9   4  18   26.48    9.17
   9  -4  18   39.33   10.42
   9   4  18   38.13    9.58
   9   4  19   -2.28    8.53
   9  -4  19   -4.54    8.49
   9   4  20    7.07    7.57
   9  -4  20    4.70    8.59
  -9   5  21    3.35   11.69
  -9   5  20   71.23   15.34
  -9   5  19   31.02   11.85
   9   5 -19    2.65    9.01
  -9   5  18    2.96    8.63
   9   5 -18   -2.52    9.41
  -9   5  17    6.64    7.71
  -9   5  17   11.21    8.47
   9   5 -17    4.75    7.41
  -9   5  16   32.16    9.49
  -9   5  16   23.87    9.96
   9   5 -16   22.37    8.23
  -9   5  15   62.03   11.27
   9   5 -15   56.74   11.33
  -9   5  15   80.25   14.54
   9   5 -14  201.15   18.47
  -9   5  14  193.70   19.57
  -9   5  14  165.50   17.17
  -9   5  14  138.94   13.71
  -9   5  13  106.91   15.26
  -9   5  13  108.24   17.02
  -9   5  13  121.08   12.25
  -9   5  12  117.27   16.46
  -9   5  12  149.37   16.23
  -9   5  12  136.16   12.68
  -9   5  12  126.54   14.52
  -9   5  11    9.89    4.93
  -9   5  11    2.33    8.72
  -9   5  11    9.02    6.75
  -9   5  10  154.45   17.68
  -9   5  10  209.74   15.64
   9  -5  -9  317.19   19.72
  -9   5   9  347.92   21.31
  -9   5   9  362.33   25.39
  -9   5   8  213.89   15.56
   9  -5  -8  195.37   13.90
  -9   5   8  210.67   18.27
   9  -5  -8  183.77   13.68
  -9   5   7   28.02    5.83
  -9   5   7   22.71    7.24
   9  -5  -7   18.69    4.57
  -9   5   7   12.44    5.86
   9  -5  -7   25.28    4.84
   9   5  -7   17.39    4.30
   9   5  -7   23.97    4.85
  -9   5   6   24.63    6.42
  -9   5   6   35.82    7.58
  -9   5   6   27.03    7.92
   9   5  -6   34.38    5.56
   9  -5  -6   36.54    5.49
  -9   5   6   24.01    5.84
  -9   5   5    2.52    3.80
  -9   5   5   12.25    6.45
  -9   5   5  -10.62    5.42
  -9   5   5    6.75    5.11
   9   5  -5    1.88    2.20
   9  -5  -5    3.74    2.92
  -9  -5   5    7.69    5.62
  -9   5   5    6.05    5.00
   9   5  -4   69.23    7.62
   9  -5  -4   94.58    8.33
  -9   5   4   78.47    9.53
  -9   5   4   74.36    9.64
  -9   5   4   90.94   10.41
  -9   5   4   95.73    9.88
  -9  -5   4   90.23   10.51
  -9   5   4  113.90   11.51
   9   5  -3   98.02    8.43
  -9   5   3   74.92    9.32
  -9   5   3  102.04   10.61
  -9   5   3   76.26    9.11
  -9   5   3   99.87   10.24
  -9  -5   3   94.70   10.11
  -9  -5   3   98.30   11.33
  -9   5   2   23.55    5.83
  -9  -5   2   32.39    7.97
  -9   5   2   25.98    5.99
  -9  -5   2   14.32    4.88
  -9   5   2   11.39    4.66
  -9   5   1   88.44    8.45
   9   5  -1   98.93    9.47
  -9   5   1   97.90    9.82
  -9  -5   1   97.10   11.85
  -9   5   1   87.06    9.14
  -9   5   1   96.95    9.23
  -9  -5   1   81.88    8.96
  -9  -5   0   36.18    5.90
  -9   5   0   26.77    5.29
   9   5   0   41.98    4.95
   9   5   0   41.43    7.08
  -9   5   0   36.24    6.13
  -9  -5   0   52.21   10.34
   9  -5   0   53.50    9.43
  -9   5   0   37.68    6.82
  -9   5   0   35.84    5.80
  -9  -5  -1    3.97    3.00
   9   5   1    5.39    2.83
   9   5   1    6.92    4.76
  -9   5  -1    5.64    3.63
   9  -5   1   13.94    6.16
  -9  -5  -1    4.48    8.39
  -9   5  -1    1.18    5.98
  -9   5  -1   -2.68    4.35
  -9   5  -1   -0.85    3.37
   9   5   2  306.14   16.30
   9  -5   2  287.52   20.52
   9   5   2  303.91   19.25
  -9  -5  -2  283.25   21.84
  -9   5  -2  317.03   20.34
  -9   5  -2  331.91   18.31
  -9   5  -2  303.08   16.99
   9   5   3   11.30    3.65
   9   5   3   18.11    6.24
  -9  -5  -3    6.65    9.27
   9  -5   3   17.54    6.26
  -9   5  -3    8.40    7.09
  -9   5  -3   19.02    5.90
  -9   5  -3   19.16    3.99
   9   5   4   85.89    8.35
   9   5   4   98.04   11.06
  -9   5  -4   95.10   10.51
  -9  -5  -4   92.54   14.77
   9  -5   4  106.24   11.50
  -9   5  -4   97.03   12.68
  -9   5  -4   94.03    8.83
   9   5   5    1.43    5.79
  -9   5  -5    1.32    7.10
  -9  -5  -5   -7.34   11.26
   9   5   5    0.94    3.29
   9  -5   5    5.73    5.12
  -9   5  -5    1.70    7.82
   9   5   6    8.08    4.18
   9   5   6   13.51    7.50
  -9  -5  -6   15.01    5.02
   9  -5   6    4.38    4.97
  -9   5  -6   11.18    9.53
   9   5   7    5.38    3.46
   9  -5   7   -1.51    6.00
  -9   5  -7  -10.24   12.87
   9   5   7   -4.72    6.71
  -9  -5  -7   -2.30    4.30
   9   5   8  256.48   20.38
  -9  -5  -8  290.41   18.65
   9   5   8  251.19   16.87
   9  -5   8  304.44   20.77
  -9   5  -8  272.36   25.31
   9   5   8  270.30   18.62
   9  -5   8  263.80   18.26
   9   5   9   51.88    7.69
   9  -5   9   36.38    8.20
   9   5   9   39.51    7.96
   9  -5   9   56.40    8.65
   9   5   9   42.33    9.56
   9  -5  10  104.57   12.94
   9  -5  10  109.73   11.86
   9   5  10  138.91   13.14
   9   5  10  141.94   14.82
   9  -5  11    1.84    6.57
   9   5  11  -12.09    7.36
   9  -5  11   -2.96    5.66
   9   5  11   -7.23    7.19
   9  -5  12   52.29   10.33
   9   5  12   36.72    8.46
   9  -5  12   39.11    8.29
   9   5  12   29.76    9.38
   9  -5  13   50.97   10.48
   9   5  13   20.22    8.07
   9   5  13   38.18    9.94
   9  -5  14  113.74   15.42
   9   5  14  143.87   15.24
   9   5  14  121.26   14.89
   9  -5  15   85.62   13.94
   9   5  15  102.66   13.44
   9   5  15   73.54   12.76
   9  -5  16    4.70    8.62
   9   5  16   13.69    8.23
   9  -5  17    4.92    8.35
   9   5  17    8.19    8.59
   9  -5  18   -2.55    9.94
   9   5  18   18.65    9.69
   9   5  19   41.66   11.11
  -9  -6  20   26.59   20.73
  -9   6  20    3.21   10.62
  -9   6  19    6.16   11.00
  -9   6  18    2.93    8.56
  -9   6  18    9.67    8.64
  -9   6  17   13.98    9.51
  -9   6  17   14.15    8.23
  -9   6  16   71.72   13.89
  -9   6  16   52.65   11.48
  -9   6  15    2.52    7.08
  -9   6  15    2.22    7.12
  -9   6  15    1.67    4.87
  -9   6  14    9.84    5.29
  -9   6  14   11.92    8.11
  -9   6  14   21.48    9.03
  -9   6  13   48.24    8.38
  -9   6  13   48.62   12.74
  -9   6  13   51.96   10.69
  -9   6  13   39.61   10.15
  -9   6  12    6.39    4.82
  -9   6  12    2.56    9.16
  -9   6  12    2.02    7.40
  -9   6  11  426.59   31.20
  -9   6  11  496.52   27.97
  -9   6  11  451.22   29.44
  -9   6  10   47.84    8.51
  -9   6  10   51.71   11.08
  -9   6   9   35.89    7.31
  -9   6   9   42.10    9.80
  -9   6   8   13.19    5.48
  -9   6   8    9.83    6.32
   9  -6  -8    4.38    3.20
  -9   6   7   21.73    6.03
  -9   6   7   27.47    7.99
  -9   6   6  294.92   19.56
  -9   6   6  249.92   19.79
  -9   6   5  209.65   16.41
  -9   6   5  215.46   17.19
  -9   6   4    1.44    4.64
  -9   6   4    4.51    4.54
  -9   6   3  279.63   19.21
  -9   6   3  245.06   17.91
   9   6  -2    1.06    4.68
  -9   6   2   -2.68    4.90
   9   6  -1   48.50    7.32
  -9   6   1   44.31    7.09
  -9  -6   1   41.97   10.88
   9   6   0   17.95    6.08
  -9   6   0   20.71    5.07
  -9  -6   0   22.83   10.66
   9  -6   0   17.72    6.56
   9   6   1   20.35    6.53
  -9   6  -1   20.34    5.23
   9  -6   1    9.69    6.92
  -9  -6  -1   15.42   10.45
   9  -6   2  179.19   15.45
  -9   6  -2  152.37   12.54
   9   6   2  156.56   13.83
   9   6   2  160.77   11.30
   9  -6   3    7.69    6.12
  -9  -6  -3   -7.52   11.35
   9   6   3    8.53    6.92
  -9   6  -3   13.88    8.50
   9   6   3    3.69    3.88
   9  -6   4    1.51    5.77
   9   6   4   -5.98    7.19
  -9   6  -4   -3.38    7.90
   9   6   4   -0.99    3.76
   9  -6   5  195.79   16.30
   9   6   5  200.96   17.06
   9   6   5  203.12   14.18
  -9   6  -5  211.36   19.91
   9   6   6   23.00    8.61
   9   6   6   24.46    5.72
   9  -6   6   15.14    6.17
  -9   6  -6    4.05   11.40
   9   6   7   36.02    9.26
   9   6   7   42.41    7.18
  -9   6  -7   19.81   12.44
   9  -6   7   41.87    8.39
   9   6   8    5.34    7.34
   9  -6   8    8.04    5.88
   9   6   8    1.24    4.11
   9  -6   9  136.07   13.97
   9   6   9  126.19   12.22
   9   6   9  145.48   15.63
   9   6  10    1.90    7.69
   9  -6  10   -1.76    6.72
   9   6  10   -1.36    4.63
   9  -6  11  473.37   29.77
   9   6  11  492.18   27.49
   9   6  11  477.51   30.55
   9  -6  12   33.00    8.65
   9   6  12   40.21   10.23
   9  -6  13   73.38   12.34
   9   6  13   65.91   12.36
   9  -6  14   -2.14    6.45
   9   6  14   -4.21    8.20
   9  -6  15    6.71    7.40
   9   6  15    4.28    8.34
   9  -6  16    4.68    7.52
   9   6  16   13.06    8.82
   9  -6  17    4.86    8.26
   9   6  17    6.59    8.90
   9  -6  18    2.52    9.81
   9   6  18   -2.21    8.96
  -9   7  18   76.43   14.57
  -9   7  17    5.57   10.19
  -9   7  17    4.99    9.12
  -9   7  16   -2.66    8.29
  -9   7  16    2.43    8.24
  -9   7  15   35.42   10.60
  -9   7  15   54.48    9.57
  -9   7  14   84.05   11.06
  -9   7  14   77.06   13.36
  -9   7  14   48.27   11.01
  -9   7  13   62.17   10.34
  -9   7  13   36.69   10.73
  -9   7  13   60.54   11.61
  -9   7  12    1.77    5.51
  -9   7  12   21.04   10.85
  -9   7  12    2.19    6.82
  -9   7  11   80.19   11.41
  -9   7  11   68.43   11.95
  -9   7  11   74.68   14.10
  -9   7  10  248.68   19.33
  -9   7  10  222.15   21.54
  -9   7   9  173.33   15.82
  -9   7   9  179.52   18.22
  -9   7   8    1.64    5.44
  -9   7   8   -2.05    5.98
  -9   7   7   14.66    6.11
  -9   7   7   17.35    7.23
  -9   7   6    8.08    5.49
  -9   7   6    5.41    5.80
  -9   7   5   24.29    6.48
  -9   7   5   16.97    6.91
  -9   7   4  256.42   19.06
  -9   7   4  216.35   17.67
  -9   7   3  124.79   12.63
  -9   7   3  117.57   13.05
  -9   7   2   -2.85    4.45
   9   7  -2   -1.15    4.68
  -9   7   1   -1.36    4.10
   9   7  -1    7.40    5.35
  -9   7   0   -2.61    4.19
   9   7   0   -2.63    5.33
  -9  -7  -1   30.79   12.38
   9   7   1   20.88    6.87
  -9   7  -1    7.60    4.21
   9   7   2  640.15   32.67
  -9   7  -2  558.73   29.99
   9   7   3   68.31   10.73
  -9   7  -3   79.54    9.10
   9   7   4  219.90   18.07
   9   7   5   -1.70    6.64
   9   7   5    5.82    4.45
   9   7   6  106.88   13.07
   9   7   6   99.07   10.31
   9   7   7  123.81   14.62
   9   7   7  135.80   12.55
   9   7   8  128.17   14.93
   9   7   8  142.26   12.84
   9   7   9  169.86   17.28
   9   7   9  153.08   13.75
   9   7  10   49.05   10.64
   9   7  10   64.37    9.41
   9   7  11   14.63    8.65
   9   7  11   25.78    7.03
   9   7  12   -4.29    9.30
   9   7  12    3.14    5.05
   9   7  13   26.31    9.86
   9   7  13   27.64    7.77
   9   7  14    8.95    8.00
   9   7  15   18.16    9.21
   9   7  16   27.65   10.82
  -9   8  16   15.36    8.24
  -9   8  16   13.91    6.95
  -9   8  15   23.48    7.36
  -9   8  15   25.00    9.58
  -9   8  14   21.29    7.43
  -9   8  14   26.91    9.18
  -9   8  13   17.28    6.70
  -9   8  13    2.39    7.48
  -9   8  12   88.37   12.02
  -9   8  12   70.35   12.17
  -9   8  11   -2.30    8.03
  -9   8  10   -3.74    6.98
  -9   8   9    1.83    5.71
  -9   8   8   45.29    8.96
  -9   8   7    1.80    6.12
  -9   8   6   21.59    7.46
  -9   8   5   61.21    9.95
  -9   8   4  116.71   13.60
  -9   8   3    1.80    5.44
  -9   8   2   67.01   10.35
   9   8   0   92.44   11.06
   9   8   1  366.76   23.55
   9   8   2    7.95    6.20
   9   8   3   61.84   10.56
   9   8   4   12.26    7.61
   9   8   5   31.11    9.20
   9   8   6    1.90    7.25
   9   8   7   47.41   10.68
   9   8   8   -4.08    7.96
   9   8   9   -2.10    8.67
   9   8   9    6.02    5.74
   9   8  10   -2.16    8.25
   9   8  10   -1.56    5.02
   9   8  11   -4.44    8.64
   9   8  11    1.62    5.35
   9   8  12    6.80    8.32
   9   8  12   31.67    8.03
   9   8  13   -2.32    8.85
   9   8  13    1.71    5.17
   9   8  14   -2.35    9.16
   9   8  14   -1.76    6.29
  -9   9  15   18.80    7.31
  -9   9  14   10.39    6.49
  -9   9  14   10.36    8.08
  -9   9  13   -2.06    6.00
  -9   9  13   -2.54    8.64
  -9   9  12    8.28    6.86
  -9   9  12   15.00    8.94
  -9   9  11   10.52    6.57
  -9   9  11   12.32    8.38
  -9   9  10   -4.08    5.94
  -9   9  10    4.86    7.82
  -9   9   9   22.03    7.19
  -9   9   8   17.81    7.26
  -9   9   7    1.97    5.74
  -9   9   6   11.80    6.33
  -9   9   5   21.58    7.37
  -9   9   4   -3.94    6.52
  -9   9   3   90.70   12.51
  -9   9   2   -1.97    5.75
  -9   9   1  400.27   27.05
   9   9   2   49.38    9.90
   9   9   3  348.51   24.62
   9   9   4   85.64   12.84
   9   9   5   -1.94    8.30
   9   9   6  157.74   17.21
   9   9   7   -6.27    8.31
   9   9   8  112.04   15.70
   9   9   9    2.22    8.28
   9   9  10   93.20   14.54
   9   9  11   -2.33    9.25
   9   9  12   16.63    9.81
  -9  10  11   74.38   12.99
  -9  10  11   57.50   12.76
  -9  10  10   -4.40    7.28
  -9  10  10   -2.58    9.01
  -9  10   9   60.57   11.26
  -9  10   8   12.83    6.89
  -9  10   7    4.27    6.00
  -9  10   6    8.50    6.63
  -9  10   5   69.99   11.83
  -9  10   4   -4.25    6.83
  -9  10   3   21.19    8.29
  -9  10   2   12.73    7.03
  -9  10   1   -4.23    6.39
  -9  10   0   -2.11    6.16
  -9  10  -1    8.40    6.13
   9  10   4    1.96    7.96
   9  10   5  161.78   17.96
   9  10   6    4.26    9.24
   9  10   7   -4.39    8.56
   9  10   8   -2.26    9.49
   9  10   9   39.46   11.94
  -9  11   5   27.15    8.51
  -9  11   4   11.31    7.06
  -9  11   3   -2.26    6.83
  -9  11   2    2.24    6.31
  -9  11   1   -2.24    6.76
  -9  11   0   -2.23    5.77
  -9  11  -1    6.66    6.00
  -9  11  -2   -2.20    5.70
   9  11   7   43.31   11.88
  10   0 -22    6.58    9.60
 -10   0  22   18.11   13.54
  10   0 -21   -3.17   11.06
 -10   0  21    3.51   11.59
  10   0 -20   -3.05    9.51
 -10   0  20    3.37   11.15
  10   0 -19   -2.92    9.65
 -10   0  19   -6.46   11.54
  10   0 -18    5.57    9.22
 -10   0  18    9.27   11.55
  10   0 -17  -10.59   10.11
 -10   0  17   14.71   10.51
  10   0 -16   52.73   12.35
 -10   0  16   50.08   13.83
  10   0 -15    4.75    7.40
 -10   0  15   13.12    9.81
  10   0 -14  304.29   24.55
 -10   0  14  329.91   26.32
  10   0 -13   -6.31    8.68
 -10   0  13    4.58    7.57
  10   0 -12    1.97    6.72
  10   0 -12   25.72    6.79
 -10   0  12    8.46    8.09
 -10   0  12   27.90   11.18
  10   0 -11   -3.10    5.92
  10   0 -11    1.33    3.89
 -10   0  11   -3.91    6.46
 -10   0  11    4.36    7.40
  10   0 -10  102.91   11.20
  10   0 -10   93.41    9.88
 -10   0  10   93.46   12.22
 -10   0  10  110.94   14.05
 -10   0   9    1.86    6.14
 -10   0   9   -1.89    6.41
  10   0  -9   -1.15    3.23
 -10   0   9   -3.38    3.78
  10   0  -9   -2.69    5.14
 -10   0   9   -4.94    6.02
  10   0  -8  990.98   43.10
 -10   0   8  911.34   47.21
 -10   0   8 1032.36   41.41
  10   0  -8 1005.36   44.69
 -10   0   8  931.97   48.64
 -10   0   8  916.03   46.87
 -10   0   8 1032.40   46.85
 -10   0   7   -1.82    5.11
  10   0  -7   -2.30    3.90
 -10   0   7   -1.56    4.22
  10   0  -7   -1.96    3.14
 -10   0   7   -3.20    6.11
 -10   0   6 1177.51   50.35
  10   0  -6 1089.43   47.53
  10   0  -6 1059.12   46.72
 -10   0   6 1064.11   51.13
 -10   0   6 1074.90   50.06
  10   0  -6 1103.35   45.73
 -10   0   5   -0.36    1.43
  10   0  -5   -1.68    2.77
 -10   0   5   -3.93    4.34
 -10   0   5    1.37    4.65
 -10   0   5   -1.53    3.58
 -10   0   4   57.31    9.20
 -10   0   4   47.99    7.15
  10   0  -4   43.13    6.08
 -10   0   4   60.10    8.12
 -10   0   3    1.37    4.52
 -10   0   3    2.18    2.82
  10   0  -3    1.00    2.20
 -10   0   3   -2.56    3.00
 -10   0   2  334.65   20.46
 -10   0   2  334.51   18.81
  10   0  -2  329.92   18.63
 -10   0   2  345.76   20.02
 -10   0   1    1.14    3.87
 -10   0   1   -0.91    2.36
 -10   0   1    0.95    2.57
 -10   0   1   -1.10    2.57
 -10   0   0  340.58   18.71
 -10   0   0  374.74   19.56
  10   0   0  331.14   22.61
 -10   0   0  384.64   20.79
 -10   0  -1   -3.97    4.45
 -10   0  -1    0.89    2.86
 -10   0  -1   -2.07    3.88
  10   0   2  960.26   45.65
 -10   0  -2  966.26   42.53
 -10   0  -2  975.44   42.21
 -10   0  -2  967.32   41.36
  10   0   3   -1.42    4.14
 -10   0  -3   -2.13    4.22
 -10   0  -3   -0.94    3.01
 -10   0  -3   -2.21    4.13
 -10   0  -3    3.71    3.96
  10   0   4    1.38    4.93
 -10   0  -4   -2.29    5.06
 -10   0  -4    2.91    4.07
 -10   0  -4    1.19    5.27
 -10   0  -5    1.26    5.98
  10   0   5   -4.11    4.53
 -10   0  -5   -1.31    5.96
 -10   0  -5   -2.05    4.51
  10   0   6 1032.00   47.32
 -10   0  -6 1106.71   49.02
 -10   0  -6  996.35   45.13
 -10   0  -6 1034.16   47.79
  10   0   6 1046.89   47.09
 -10   0  -7   -2.29    5.50
  10   0   7    1.35    4.82
  10   0   7    1.41    5.14
 -10   0  -7    1.61    7.12
 -10   0  -7    3.10    6.72
  10   0   8  921.09   44.27
 -10   0  -8  956.87   46.99
  10   0   8  892.93   43.44
 -10   0  -8  952.93   47.21
 -10   0  -8  956.96   42.90
 -10   0  -9    1.90   11.00
 -10   0  -9   -3.15    3.75
 -10   0  -9   -1.29    6.37
  10   0   9    6.12    5.47
 -10   0  -9   -1.99    8.78
  10   0   9   -2.94    5.62
 -10   0 -10  174.81   13.52
 -10   0 -10  191.33   15.92
  10   0  10  170.61   15.47
  10   0  10  184.58   16.04
 -10   0 -10  182.08   21.05
 -10   0 -11    8.77    7.98
  10   0  11   -8.18    6.99
  10   0  11   -1.69    6.19
 -10   0 -12    6.22    7.66
  10   0  12    5.36    6.07
  10   0  12   -8.64    6.46
  10   0  13   -1.88    6.21
  10   0  13    3.64    6.96
  10   0  14   19.75    7.27
  10   0  14   28.75    8.62
  10   0  15   -8.29    8.25
  10   0  15  -10.07    7.70
  10   0  16   -6.49    8.77
  10   0  16   12.63    8.20
  10   0  17    2.26    9.15
  10   0  17   -2.20    7.86
  10   0  18   23.45   10.05
  10   0  18   25.15    9.80
  10   0  19  -16.98    9.46
  10   0  19    2.37    7.62
  10   0  20  -10.00    9.94
  10   0  20    2.45    8.94
  10   1 -22   52.53   14.36
  10  -1 -22   45.90   13.64
 -10  -1  22   65.41   17.55
 -10   1  22   50.69   15.31
  10  -1 -21   22.15   12.13
  10   1 -21   28.52   11.89
 -10  -1  21   31.57   14.76
 -10   1  21   45.44   15.92
  10   1 -20   -3.04    9.18
  10  -1 -20    9.12    9.49
 -10  -1  20   20.26   12.35
 -10   1  20   13.44   11.11
  10  -1 -19   -2.91    9.36
  10   1 -19   -2.91    9.89
 -10  -1  19    6.51   10.76
 -10   1  19    6.45   10.37
  10   1 -18  161.14   19.94
  10  -1 -18  144.49   19.35
 -10  -1  18  164.71   21.45
 -10   1  18  181.86   22.35
  10  -1 -17    5.29    8.25
  10   1 -17    5.28    7.71
 -10  -1  17   23.67   12.21
 -10   1  17   17.54   11.17
  10   1 -16   20.02    9.16
  10  -1 -16   17.53    9.17
 -10  -1  16   11.23   11.17
 -10   1  16   13.83    9.41
  10   1 -15   14.19    7.84
  10  -1 -15   14.20    8.26
 -10   1  15   18.17    9.50
 -10  -1  15   13.25    9.48
  10   1 -14   22.30    8.55
  10  -1 -14   31.21    8.73
 -10   1  14   16.96    9.09
 -10  -1  14   22.44   10.85
  10   1 -13    2.10    6.94
  10  -1 -13   -2.09    6.32
 -10   1  13   18.06    8.97
 -10  -1  13    7.00    8.54
 -10   1  12  116.68   11.33
 -10   1  12  123.40   15.88
 -10   1  12  123.74   15.25
 -10  -1  12  136.58   16.09
  10   1 -12   96.38   11.12
 -10   1  11  106.66   11.00
  10   1 -11  146.99   13.77
  10  -1 -11  112.26   12.43
 -10   1  11  132.75   15.81
 -10  -1  11  114.05   14.75
 -10   1  11   97.08   13.35
 -10  -1  11  151.13   16.72
  10  -1 -11  128.70   11.98
  10   1 -11  125.60   11.88
 -10   1  10   84.85    9.32
  10   1 -10   79.66   10.11
  10  -1 -10   93.03   10.61
 -10  -1  10   80.61   11.90
 -10  -1  10   91.14   13.00
 -10   1  10   89.62   11.99
 -10   1  10   82.08   12.55
  10   1 -10   96.53    9.90
  10  -1 -10   83.96    9.40
 -10   1   9   13.52    4.31
  10   1  -9    4.04    3.50
  10  -1  -9    8.01    3.91
 -10  -1   9   18.22    7.52
 -10  -1   9   13.39    6.53
 -10   1   9    8.30    5.02
  10  -1  -9   11.71    4.20
 -10   1   9   22.76    7.25
 -10  -1   9   20.90    8.77
 -10   1   9   15.13    8.85
  10   1  -9   11.33    4.07
  10   1  -8  216.50   15.72
  10  -1  -8  208.03   15.41
 -10   1   8  225.68   19.32
 -10  -1   8  250.48   18.93
 -10  -1   8  196.10   16.60
 -10   1   8  236.47   18.73
  10  -1  -8  275.35   16.10
  10   1  -8  242.68   15.21
 -10  -1   8  225.47   18.89
 -10   1   8  206.65   18.04
 -10   1   7   93.94    7.03
 -10   1   7   93.16   11.11
  10   1  -7   87.02    8.35
  10  -1  -7   95.84    8.78
 -10  -1   7   82.41   11.45
 -10   1   7   99.11   12.07
  10   1  -7   94.35    9.50
  10  -1  -7   82.61    9.02
 -10  -1   7   95.27   12.13
 -10   1   7   90.74   11.69
 -10  -1   7  100.95   11.46
 -10  -1   7  107.33   11.05
 -10   1   6   -0.56    1.94
  10   1  -6    5.17    2.77
 -10  -1   6    1.39    4.06
  10  -1  -6    0.93    2.39
 -10  -1   6    4.49    5.08
 -10   1   6    1.48    3.64
 -10   1   6    1.48    5.52
  10   1  -6   -1.17    2.87
  10  -1  -6    3.46    2.98
  10  -1  -6    6.33    3.49
 -10  -1   6    3.38    4.56
 -10   1   6    1.67    5.03
  10   1  -6    2.13    3.00
 -10   1   5    2.25    2.11
 -10   1   5    4.60    5.85
  10   1  -5    2.38    2.23
 -10  -1   5    1.27    3.42
  10  -1  -5    3.51    2.74
 -10   1   5    2.71    3.51
 -10   1   5   -1.37    5.73
  10   1  -5    2.18    2.95
  10  -1  -5   10.84    3.59
 -10  -1   5    9.70    5.40
 -10  -1   5    6.20    4.36
 -10   1   5   13.75    5.33
 -10   1   4   -1.41    5.16
 -10  -1   4    3.18    5.67
 -10  -1   4   -1.16    3.83
 -10   1   4    2.49    3.50
  10   1  -4    1.03    2.40
  10  -1  -4   -1.03    2.26
 -10  -1   4   -1.42    4.69
 -10   1   4   -1.40    3.77
 -10  -1   3   28.75    7.14
 -10   1   3   22.15    6.40
 -10   1   3   13.68    4.07
 -10  -1   3   25.26    4.93
  10   1  -3   42.72    5.76
  10  -1  -3   30.88    5.17
 -10  -1   3   24.60    5.50
 -10   1   3   24.26    5.52
 -10   1   2    2.39    4.48
 -10  -1   2    5.14    4.70
 -10  -1   2    2.86    2.69
 -10   1   2    7.32    3.36
  10   1  -2    6.89    2.77
  10  -1  -2    1.98    2.45
 -10  -1   2    3.56    3.34
 -10   1   2    5.87    3.55
 -10  -1   1   -0.96    3.74
 -10   1   1   -6.66    3.56
 -10  -1   1    0.87    2.63
 -10   1   1    0.96    2.91
 -10  -1   1   -2.33    4.16
 -10   1   1    1.12    4.18
 -10  -1   1    1.11    3.11
 -10   1   1    2.20    2.84
  10  -1   0 1131.96   52.75
 -10  -1   0 1200.24   49.50
 -10   1   0 1225.77   49.66
 -10  -1   0 1161.06   47.08
 -10   1   0 1100.52   47.73
 -10  -1   0 1142.82   47.77
 -10  -1   0 1139.49   47.91
 -10   1   0 1121.53   47.79
 -10  -1  -1  152.77   12.00
  10   1   1  156.55   14.34
  10  -1   1  181.51   15.31
 -10   1  -1  151.32   12.39
 -10  -1  -1  167.68   11.90
 -10  -1  -1  166.12   11.54
 -10   1  -1  153.33   11.20
 -10  -1  -1  167.08   12.41
 -10   1  -1  149.27   11.93
  10   1   2   -1.49    4.63
  10  -1   2    1.48    4.63
 -10  -1  -2   -1.93    3.99
 -10  -1  -2    1.03    3.83
 -10   1  -2    1.09    3.89
 -10  -1  -2    0.89    2.69
 -10   1  -2   -0.91    2.92
 -10  -1  -2    1.02    4.27
 -10   1  -2   -2.01    4.75
 -10   1  -3  157.83   12.63
  10   1   3  156.49   13.79
  10  -1   3  130.70   12.56
 -10  -1  -3  127.06   11.13
 -10  -1  -3  138.95   11.42
 -10  -1  -3  153.02    9.64
 -10   1  -3  130.32   11.54
 -10  -1  -3  132.73   10.56
 -10   1  -3  160.83   11.45
 -10  -1  -3  140.49   11.98
 -10  -1  -4  278.27   14.50
  10   1   4  253.39   17.73
  10  -1   4  254.99   17.72
 -10  -1  -4  244.30   16.26
 -10  -1  -4  235.32   16.45
 -10   1  -4  229.17   16.96
 -10  -1  -4  218.88   15.90
 -10   1  -4  248.62   16.61
 -10  -1  -5  412.22   20.30
 -10   1  -5  404.28   21.43
 -10  -1  -5  420.08   22.88
  10   1   5  422.29   24.02
  10  -1   5  365.65   23.26
 -10  -1  -5  395.69   23.46
 -10   1  -5  356.23   23.25
 -10  -1  -5  392.06   23.39
 -10   1  -5  408.12   23.52
 -10  -1  -6   57.94    6.90
 -10   1  -6   54.79    7.53
 -10  -1  -6   66.84    9.50
 -10  -1  -6   52.11    9.05
 -10   1  -6   33.50    8.36
 -10  -1  -6   51.97    9.36
  10   1   6   59.48    8.77
 -10   1  -6   69.64   10.85
  10  -1   6   54.79    8.48
  10  -1   6   60.28    8.64
  10   1   6   48.37    8.06
 -10  -1  -7  299.79   16.96
 -10   1  -7  284.79   17.51
 -10  -1  -7  302.82   19.37
  10  -1   7  267.53   19.17
  10   1   7  261.65   18.56
 -10  -1  -7  299.80   21.33
 -10   1  -7  301.92   21.69
  10   1   7  261.28   18.60
  10  -1   7  256.16   18.37
 -10  -1  -7  282.47   20.90
 -10   1  -7  243.58   19.70
 -10  -1  -8    3.09    3.76
 -10   1  -8   -1.11    6.01
 -10  -1  -8   -5.24   10.71
 -10   1  -8   -1.72   10.83
 -10  -1  -8    5.38    6.64
  10   1   8    1.42    5.54
  10  -1   8    4.52    5.98
 -10  -1  -8   10.51    8.63
 -10   1  -8   20.43   10.64
  10   1   8   -5.62    5.69
  10  -1   8   -2.81    6.00
 -10  -1  -9   14.30    5.09
 -10   1  -9    7.08    6.89
 -10  -1  -9    5.77   10.71
 -10   1  -9    9.48   10.03
 -10  -1  -9   17.18    7.74
  10   1   9   17.82    6.14
  10  -1   9   17.32    6.95
 -10  -1  -9   13.64    8.74
 -10   1  -9   22.56   11.53
  10   1   9   13.26    6.61
  10  -1   9    2.94    5.74
 -10   1 -10  253.60   17.44
 -10  -1 -10  204.04   18.42
  10  -1  10  261.55   19.46
  10   1  10  222.79   18.04
 -10  -1 -10  222.11   15.97
 -10  -1 -10  226.39   23.22
  10   1  10  257.81   18.87
  10  -1  10  238.33   18.63
  10   1  11   11.48    6.02
  10  -1  11   19.17    7.58
  10   1  11    3.28    6.53
  10  -1  11   19.58    7.65
 -10   1 -11   21.29    8.63
 -10  -1 -11   17.90    9.07
  10   1  12   93.37   12.59
  10  -1  12   92.92   12.09
  10   1  12   98.43   12.35
  10  -1  12  100.83   13.14
  10   1  13    3.64    6.81
  10  -1  13   -1.82    6.79
  10   1  13    9.10    6.65
  10  -1  13   11.57    6.89
  10   1  14    9.59    6.87
  10  -1  14    7.64    7.01
  10   1  14   22.96    8.45
  10  -1  14   30.39    8.81
  10   1  15    2.01    7.36
  10  -1  15   -4.01    8.69
  10   1  15   -2.01    6.26
  10  -1  15   -4.25    7.77
  10   1  16   12.65    8.73
  10  -1  16   12.60    8.05
  10   1  16   29.34    9.41
  10  -1  16   35.59   10.28
  10   1  17   74.69   12.94
  10  -1  17   54.71   12.43
  10   1  17   94.18   14.19
  10  -1  17   67.10   13.24
  10   1  18   11.43    8.55
  10  -1  18    4.56    7.95
  10   1  18    6.82    7.52
  10  -1  18   12.01    9.36
  10   1  19   -7.11    8.86
  10  -1  19    7.09    8.44
  10   1  19   -4.70    8.79
  10  -1  19   -2.50    8.48
  10   1  20   19.56    9.72
  10  -1  20    4.88    8.30
  10   1  20   17.02    9.67
  10  -1  20    2.57    9.83
  10   1  21   -5.00    9.13
 -10   2  22  -10.84   13.21
  10  -2 -21   -3.14   10.08
  10   2 -21    3.14    8.13
 -10  -2  21   -7.05   10.99
 -10   2  21    3.48   12.14
 -10   2  20   23.51   11.79
  10   2 -20   36.22   11.37
  10  -2 -20   48.31   12.75
 -10  -2  19   -3.26   11.07
 -10   2  19    9.66   11.22
  10   2 -19   -2.89    9.81
  10  -2 -19   -2.89    9.55
 -10  -2  18  155.86   21.28
 -10   2  18  138.30   19.88
  10   2 -18  173.33   20.46
  10  -2 -18  140.58   18.98
 -10  -2  17   44.67   13.99
 -10   2  17   52.42   14.24
  10   2 -17   39.20   11.42
  10  -2 -17   26.19   10.09
 -10   2  16   13.75    9.82
 -10  -2  16    8.48   10.56
  10   2 -16   -2.48    7.72
 -10  -2  15   56.10   13.88
  10   2 -15   23.39    9.04
  10  -2 -15   30.41   10.08
 -10   2  14   67.43    9.95
  10   2 -14   59.42   11.59
  10  -2 -14   52.83   11.07
 -10   2  14   69.91   13.33
 -10  -2  14   65.46   13.63
 -10   2  13  309.02   20.14
 -10  -2  13  274.35   24.11
 -10   2  13  288.31   23.95
 -10   2  13  261.61   25.17
  10  -2 -13  316.19   23.80
  10   2 -13  273.52   22.39
 -10   2  12    6.95    5.63
 -10   2  12   -2.41    9.02
 -10   2  12   -4.19    6.11
 -10  -2  12   -2.21    9.12
  10   2 -12   -1.39    5.19
 -10   2  11   18.60    6.34
  10   2 -11   15.24    5.74
  10  -2 -11   21.12    5.80
 -10   2  11   17.59    8.09
 -10   2  11   22.52    8.63
 -10  -2  11   18.47    8.34
  10   2 -11   19.39    5.92
  10  -2 -11   29.47    6.22
 -10   2  10    3.83    4.56
 -10   2  10    4.18    6.51
  10   2 -10   -1.19    3.47
  10  -2 -10    2.51    3.39
  10   2 -10   -1.43    4.85
  10  -2 -10   -1.40    4.23
 -10  -2  10   11.60    8.11
 -10   2  10   -1.82    6.81
 -10  -2  10    7.56    7.65
  10  -2  -9   22.21    5.28
 -10   2   9   17.43    6.79
 -10  -2   9   26.94    8.77
 -10   2   9   24.88    9.22
  10   2  -9   18.56    4.79
 -10  -2   9   19.02    6.91
 -10  -2   9    8.95    6.58
  10   2  -9   23.92    5.90
  10  -2  -9   19.57    5.43
 -10   2   9   21.91    4.30
 -10   2   8   78.40    7.49
  10  -2  -8   79.49    8.59
 -10   2   8   91.50   11.55
  10   2  -8   82.82    8.55
 -10  -2   8   86.81   12.61
 -10   2   8   77.08   11.78
  10   2  -8   78.65    9.04
  10  -2  -8   83.08    9.12
 -10  -2   8   95.51   11.42
 -10  -2   8   83.40   11.19
 -10  -2   7   -1.41    4.79
 -10   2   7    2.28    2.84
  10   2  -7   -0.90    2.89
  10  -2  -7    2.04    2.86
 -10   2   7    1.66    5.00
 -10  -2   7    1.64    6.13
 -10   2   7   -1.61    5.75
 -10  -2   7    2.98    4.93
  10   2  -7   -1.14    3.20
  10  -2  -7    3.33    3.57
 -10  -2   7    1.86    5.42
 -10   2   7    3.65    5.51
  10   2  -7    1.24    3.07
  10  -2  -7   -1.22    3.00
 -10  -2   6  472.32   26.07
 -10  -2   6  485.92   26.80
 -10   2   6  502.97   28.10
 -10   2   6  485.13   22.83
 -10   2   6  485.41   27.77
 -10  -2   6  452.24   27.51
  10  -2  -6  492.25   24.32
  10   2  -6  481.47   23.25
 -10   2   6  467.83   27.88
  10   2  -6  499.86   25.15
  10  -2  -6  483.53   24.74
 -10  -2   6  489.89   29.07
 -10   2   6  492.87   28.81
  10   2  -6  465.04   25.22
  10  -2  -6  492.00   25.35
 -10  -2   5   33.70    6.12
 -10   2   5   26.38    4.70
 -10   2   5   14.33    6.07
 -10  -2   5   33.14    6.10
  10   2  -5   20.81    4.01
  10  -2  -5   26.78    4.84
 -10   2   5   25.39    5.97
 -10  -2   5   23.64    6.55
 -10   2   5   32.27    7.23
 -10  -2   5   23.92    6.63
 -10   2   5   15.08    5.91
  10   2  -5   14.13    3.96
  10  -2  -5   24.61    5.07
 -10  -2   4 1596.07   63.45
 -10  -2   4 1616.63   64.37
 -10   2   4 1528.01   65.45
 -10  -2   4 1629.16   68.70
 -10   2   4 1568.95   65.95
  10   2  -4 1562.60   63.36
  10  -2  -4 1562.90   63.30
 -10   2   4 1443.92   65.69
 -10  -2   4 1590.77   66.91
 -10  -2   3   21.92    5.18
 -10   2   3   17.90    4.81
 -10  -2   3   18.24    4.47
 -10  -2   3   28.19    7.18
 -10   2   3   37.06    7.12
  10   2  -3   18.85    4.31
  10  -2  -3   29.97    5.29
 -10  -2   3   21.19    5.71
 -10   2   3   33.41    6.06
 -10  -2   2 1730.56   67.07
 -10  -2   2 1604.40   66.72
 -10   2   2 1608.95   68.10
 -10  -2   2 1786.00   70.79
 -10   2   2 1747.52   69.33
  10  -2  -2 1748.20   67.75
  10   2  -2 1767.30   67.70
 -10  -2   2 1585.62   68.66
 -10   2   2 1655.57   68.84
 -10  -2   1   52.92    7.27
 -10   2   1   57.53    7.35
 -10  -2   1   57.71    4.42
 -10  -2   1   61.14    7.51
 -10  -2   1   60.10    6.70
 -10   2   1   59.67    7.33
 -10  -2   1   61.68    8.12
 -10   2   1   64.78    8.33
 -10  -2   1   62.39    7.26
 -10   2   1   59.41    7.19
 -10  -2   0  366.76   20.23
 -10  -2   0  373.54   18.67
 -10   2   0  359.89   20.09
 -10   2   0  353.38   20.52
  10  -2   0  344.95   23.31
 -10  -2   0  379.93   20.79
 -10  -2   0  365.00   16.24
 -10  -2   0  351.74   19.47
 -10   2   0  365.17   19.69
 -10  -2   0  391.62   20.79
 -10   2   0  338.71   19.68
 -10  -2  -1    3.56    2.32
  10  -2   1    4.72    4.75
 -10  -2  -1   -1.02    4.65
 -10  -2  -1    6.02    3.99
 -10   2  -1    2.18    4.25
 -10  -2  -1    2.02    4.01
 -10   2  -1   10.71    4.49
 -10  -2  -1   11.62    3.56
 -10   2  -1    9.07    3.24
 -10  -2  -2    1.17    2.09
  10  -2   2    1.51    4.39
  10   2   2   -3.03    5.14
 -10  -2  -2   -2.15    5.49
 -10  -2  -2   -1.00    3.49
 -10   2  -2    2.27    4.50
 -10  -2  -2   -1.03    4.48
 -10   2  -2   -3.01    4.62
 -10  -2  -2    0.89    2.31
 -10   2  -2   -0.92    2.59
 -10  -2  -3   55.58    5.78
  10  -2   3   70.16    9.53
  10   2   3   64.20    9.03
 -10  -2  -3   68.73    9.09
 -10  -2  -3   54.02    7.29
 -10   2  -3   38.74    7.45
 -10   2  -3   78.16    7.74
 -10  -2  -3   46.90    7.38
 -10   2  -3   43.66    7.13
 -10  -2  -3   62.04    6.78
 -10  -2  -4   82.08    7.31
  10  -2   4   77.14    9.68
 -10  -2  -4   85.33    9.63
 -10   2  -4   42.25    8.33
 -10  -2  -4   81.40    9.74
 -10   2  -4   84.27    9.50
 -10  -2  -4   82.29    9.92
  10   2   4   74.87    9.71
 -10  -2  -5    8.17    3.69
 -10  -2  -5   24.02    7.52
  10   2   5   16.51    5.89
 -10   2  -5   18.75    7.13
  10  -2   5   21.39    6.21
 -10  -2  -5    9.89    5.80
 -10  -2  -5    9.10    6.18
 -10   2  -5   17.82    6.75
 -10  -2  -6   31.28    5.44
 -10   2  -6   25.54    5.94
 -10  -2  -6   28.74    8.29
 -10   2  -6   23.97    7.91
 -10  -2  -6   22.71    7.21
  10   2   6   33.83    7.22
 -10  -2  -6   39.87    8.63
  10  -2   6   34.74    7.72
 -10   2  -6   38.15    9.65
  10   2   6   28.77    6.45
  10  -2   6   21.02    6.23
 -10  -2  -7  249.50   15.59
 -10  -2  -7  247.13   18.72
 -10   2  -7  235.67   15.57
  10  -2   7  251.48   18.21
  10   2   7  195.91   16.30
 -10  -2  -7  238.43   19.08
 -10   2  -7  273.91   21.22
 -10  -2  -7  260.03   19.71
 -10   2  -7  230.59   19.03
  10   2   7  251.28   17.66
  10  -2   7  266.57   18.06
 -10  -2  -8   43.00    6.92
 -10   2  -8   45.75    7.51
 -10  -2  -8   33.78   10.46
 -10   2  -8   38.24   10.67
 -10  -2  -8   40.73    9.36
  10   2   8   50.05    8.43
  10  -2   8   40.25    7.84
 -10  -2  -8   46.56   10.59
 -10   2  -8   36.79   10.97
  10   2   8   21.13    6.36
  10  -2   8   42.17    7.94
 -10  -2  -9  177.75   13.51
  10   2   9  148.50   13.44
 -10   2  -9  173.31   13.56
 -10  -2  -9  152.83   18.43
 -10   2  -9  156.60   18.31
  10  -2   9  173.36   15.72
  10   2   9  168.37   14.50
 -10  -2  -9  155.35   16.05
 -10  -2  -9  142.59   17.52
 -10   2  -9  166.15   20.16
  10   2   9  159.30   14.54
  10  -2   9  149.66   14.06
  10   2  10  104.59   11.38
  10   2  10  106.85   12.12
  10  -2  10   79.91   11.56
  10   2  10  110.19   12.42
  10  -2  10   90.89   12.03
 -10  -2 -10   99.20   10.26
  10   2  11   52.33    9.47
  10  -2  11   53.53    9.31
 -10  -2 -11   72.50   16.91
  10   2  11   75.78   10.47
  10  -2  11   42.93    9.13
  10   2  11   49.06    8.61
  10  -2  12  159.82   16.01
  10   2  12  123.08   13.77
  10  -2  12  147.03   14.77
  10   2  12  143.29   14.72
  10   2  12  168.90   14.54
  10   2  13   -3.50    5.28
  10  -2  13    1.98    6.53
  10   2  13    7.28    6.66
  10  -2  13   -5.41    7.16
  10   2  13   -2.97    5.89
  10   2  14  128.56   14.65
  10  -2  14  157.62   17.28
  10   2  14  143.57   15.64
  10  -2  14  153.46   16.18
  10   2  14  130.70   13.36
  10   2  15   15.42    7.67
  10  -2  15   19.56    9.13
  10   2  15    2.01    7.52
  10  -2  15   -3.98    8.78
  10   2  15   13.99    6.42
  10   2  16   14.12    8.89
  10  -2  16    6.82    8.86
  10   2  16    4.20    7.51
  10  -2  16   -4.16    7.95
  10   2  16   -1.58    5.79
  10   2  17   -2.10    7.49
  10  -2  17   -4.73    8.84
  10   2  17    2.19    8.37
  10  -2  17   -2.17    7.95
  10   2  18   76.41   13.04
  10  -2  18   44.11   11.68
  10   2  18   54.64   11.71
  10  -2  18   90.46   13.72
  10   2  19   -6.78    8.07
  10  -2  19    2.55    8.88
  10   2  19   -2.36    8.22
  10  -2  19   -9.38    9.32
  10  -2  20   70.82   14.53
  10   2  20   80.19   14.15
  10  -2  20   67.90   13.47
 -10   3  21   48.67   15.43
  10   3 -21   43.27   12.41
  10  -3 -21   64.79   14.73
 -10   3  20  -10.06   13.33
  10   3 -20    2.97    8.33
  10  -3 -20   17.81   10.60
 -10   3  19    3.22    9.71
  10   3 -19   -2.83    9.11
  10  -3 -19   -5.68    9.39
 -10  -3  18   -6.26   10.91
 -10   3  18   -6.12    9.84
  10   3 -18    2.70   10.30
  10  -3 -18   -8.13    8.71
 -10   3  17   49.24   13.28
 -10  -3  17   20.89   12.43
  10   3 -17   63.94   12.73
  10  -3 -17   69.45   13.56
 -10   3  16   70.04   11.79
 -10   3  16   95.73   15.38
 -10  -3  16   62.31   14.81
  10   3 -16   41.13   11.52
  10  -3 -16   58.37   12.33
 -10   3  15  154.55   15.22
  10   3 -15  125.63   16.29
  10  -3 -15  135.26   16.44
 -10   3  15  141.53   18.06
 -10  -3  15  153.07   19.59
  10   3 -14  174.37   18.38
 -10   3  14  215.99   17.52
  10  -3 -14  157.33   17.54
 -10   3  14  215.21   20.96
 -10  -3  14  213.19   21.81
 -10   3  13    3.26    5.83
 -10   3  13    2.26    7.48
 -10  -3  13   -4.76    8.30
 -10   3  13   -2.61    7.62
  10   3 -13    1.44    4.88
 -10   3  12    6.27    5.73
 -10   3  12   10.61    7.58
 -10  -3  12    2.22    8.66
 -10   3  12   12.29    9.58
  10   3 -12    4.02    4.79
 -10   3  11  206.76   17.08
  10   3 -11  163.38   15.50
  10  -3 -11  227.87   17.06
 -10   3  11  243.38   21.61
 -10  -3  11  205.09   19.88
 -10   3  11  234.63   19.87
  10   3 -11  220.27   15.86
 -10   3  10   -2.07    4.03
  10   3 -10    1.39    4.05
  10  -3 -10    1.36    3.83
 -10  -3  10   -1.92    8.33
 -10   3  10    2.14    6.66
  10  -3 -10    1.25    3.63
  10   3 -10   -1.14    3.67
 -10   3   9   69.04    7.59
  10   3  -9   57.08    8.07
  10  -3  -9   71.76    8.77
 -10  -3   9   81.25   12.12
  10  -3  -9   55.21    7.53
 -10   3   9   59.57   10.38
 -10   3   9   84.02   13.10
  10   3  -9   50.06    7.05
 -10   3   8   17.42    4.55
  10   3  -8   12.32    3.86
 -10   3   8    3.69    5.20
  10  -3  -8   12.11    4.23
 -10  -3   8   10.81    7.96
 -10   3   8   12.49    7.63
  10   3  -8   19.25    4.98
  10  -3  -8    6.99    3.77
 -10  -3   8   20.81    7.70
 -10  -3   8   12.86    6.52
 -10  -3   7  184.92   15.83
 -10   3   7  220.67   17.76
 -10  -3   7  207.88   16.91
 -10   3   7  194.61   13.39
  10   3  -7  206.32   13.07
  10  -3  -7  232.63   14.70
 -10  -3   7  186.71   17.48
 -10   3   7  204.61   17.68
 -10   3   7  211.04   16.76
  10   3  -7  198.54   14.26
  10  -3  -7  197.63   14.01
 -10  -3   7  202.14   18.28
 -10   3   7  228.25   19.13
  10   3  -7  211.92   15.10
  10  -3  -7  223.03   15.11
 -10  -3   6  480.25   26.98
 -10  -3   6  572.78   28.38
 -10   3   6  480.75   28.49
 -10  -3   6  506.08   24.59
 -10   3   6  501.28   24.91
 -10   3   6  509.51   28.80
  10   3  -6  525.44   23.84
  10  -3  -6  527.69   25.43
 -10  -3   6  464.51   28.36
 -10   3   6  494.98   27.93
  10   3  -6  495.41   25.50
 -10  -3   6  441.32   28.67
 -10   3   6  477.29   29.12
  10   3  -6  515.51   26.21
  10  -3  -6  504.19   25.85
 -10  -3   5    3.45    4.12
 -10   3   5    5.62    3.66
 -10  -3   5    8.80    4.66
  10   3  -5   12.37    3.00
 -10  -3   5   11.83    5.06
 -10   3   5    7.38    4.61
 -10  -3   5   10.03    5.70
 -10   3   5   11.97    5.09
 -10  -3   5    6.44    5.02
 -10   3   5   13.99    5.94
 -10   3   5    1.39    5.41
  10   3  -5   13.95    4.02
  10  -3  -5    6.33    3.09
 -10  -3   4   12.11    4.55
 -10  -3   4   19.23    5.42
 -10  -3   4   22.42    4.95
 -10   3   4   13.63    4.66
 -10   3   4   14.86    5.14
 -10  -3   4   25.17    6.02
 -10   3   4   12.80    4.99
 -10  -3   4   19.97    6.08
 -10   3   4   11.54    5.03
  10   3  -4   15.27    3.85
  10  -3  -4   16.28    4.00
 -10  -3   3   78.91    7.96
 -10  -3   3   90.58    8.61
 -10  -3   3   87.08    8.94
 -10   3   3   77.42    9.19
 -10  -3   3   93.91   11.43
 -10   3   3   72.93    8.89
 -10   3   3  100.45   10.26
 -10  -3   3   86.97    9.89
  10   3  -3   86.28    8.23
  10  -3  -3  101.19    8.91
 -10  -3   2  164.72   12.48
 -10  -3   2  172.22   11.71
 -10   3   2  151.89   12.46
 -10  -3   2  170.91   14.26
 -10   3   2  164.38   13.05
 -10  -3   2  145.90   12.71
 -10   3   2  149.58   12.63
 -10  -3   2  174.28   11.14
 -10  -3   1  147.12   11.88
 -10   3   1  129.42   11.03
 -10  -3   1  145.50   10.28
 -10  -3   1  134.05   11.78
 -10   3   1  128.63   11.38
 -10   3   1  135.71   10.73
 -10  -3   1  134.07   11.40
 -10   3   1  120.14   10.85
 -10   3   0   74.94    7.85
 -10  -3   0   80.57    8.79
 -10  -3   0   80.72    8.12
 -10   3   0   86.56    8.74
 -10  -3   0   71.03    9.09
 -10  -3   0   77.15    6.96
 -10   3   0   86.89    8.74
 -10   3   0   96.46    9.66
  10  -3   0   67.57   10.09
 -10  -3   0   77.66    8.91
 -10  -3   0   84.59    8.80
 -10  -3  -1  526.62   25.81
  10  -3   1  526.58   29.91
 -10   3  -1  518.36   26.77
 -10  -3  -1  517.21   23.40
 -10  -3  -1  524.55   27.15
 -10  -3  -1  495.32   24.84
 -10   3  -1  478.99   24.68
 -10  -3  -1  515.56   25.93
 -10   3  -1  512.97   25.55
 -10   3  -2  369.37   21.55
  10  -3   2  368.96   23.51
 -10  -3  -2  353.51   19.98
 -10  -3  -2  397.39   22.40
 -10  -3  -2  355.39   20.54
 -10  -3  -2  393.69   19.92
 -10   3  -2  332.47   19.21
 -10   3  -2  354.97   20.17
 -10  -3  -3   16.18    3.77
 -10  -3  -3   15.24    5.17
 -10   3  -3   27.03    7.33
 -10  -3  -3   27.29    4.75
 -10   3  -3   20.34    4.45
 -10  -3  -3   15.62    5.87
 -10   3  -3    6.48    5.62
  10   3   3   25.47    7.23
 -10  -3  -3   20.51    7.10
  10  -3   3   18.07    6.35
 -10  -3  -4   73.33    7.10
 -10  -3  -4   70.39   10.17
  10   3   4   64.08    9.64
  10  -3   4   72.20    9.61
 -10  -3  -4   59.25    8.51
 -10   3  -4   85.28   10.98
 -10   3  -4   88.07    9.85
 -10  -3  -4   81.15    9.83
  10   3   5    6.13    4.97
 -10  -3  -5   13.38    7.16
 -10   3  -5   -2.60    5.64
 -10  -3  -5   25.77    8.50
  10   3   5    9.79    5.24
  10  -3   5   14.71    5.96
 -10   3  -5    4.59    6.86
 -10  -3  -5   10.93    6.36
 -10  -3  -5   12.66    3.85
 -10  -3  -6  103.08    9.35
  10   3   6  108.48   11.30
 -10   3  -6  125.01   13.21
  10  -3   6  111.89   12.16
 -10  -3  -6   92.25   12.14
  10   3   6  114.79   11.68
 -10  -3  -6   90.90   11.75
 -10   3  -6   94.35   12.94
 -10  -3  -6  128.90   13.39
 -10  -3  -7  127.63   10.54
  10   3   7  111.46   11.70
 -10  -3  -7  105.61   14.34
 -10   3  -7  124.55   14.47
  10  -3   7  140.99   13.41
 -10  -3  -7  116.06   14.32
  10   3   7  111.51   11.72
 -10  -3  -7  112.80   13.40
 -10   3  -7  137.15   15.57
  10   3   7   99.25   11.28
  10  -3   7  127.88   12.42
 -10  -3  -8    1.06    3.71
 -10   3  -8   -1.98    5.01
  10   3   8   -1.38    5.26
 -10  -3  -8    7.31    9.86
 -10   3  -8   -1.76   10.74
 -10  -3  -8    3.42    8.21
  10   3   8    2.74    5.34
  10  -3   8    1.59    5.41
 -10  -3  -8   20.52    9.52
 -10   3  -8   26.43   10.98
  10   3   8    1.41    5.04
  10  -3   8    4.22    5.25
  10   3   9    5.71    6.00
 -10  -3  -9    9.09    4.93
 -10  -3  -9  -10.05   12.33
 -10   3  -9    1.94   12.00
  10   3   9    2.80    5.46
  10  -3   9    4.99    5.80
  10   3   9   -1.47    5.97
  10  -3   9    8.77    6.24
  10   3  10   29.03    7.28
  10  -3  10   36.62    8.63
  10   3  10   15.45    6.42
  10  -3  10   10.69    5.51
  10   3  10   29.57    7.59
  10   3  11    3.03    5.29
  10  -3  11   32.99    8.34
  10   3  11    1.63    6.60
  10  -3  11   24.10    7.83
  10   3  11   10.69    6.63
  10   3  12    1.59    5.53
  10  -3  12    3.85    6.53
  10   3  12   -1.72    6.41
  10  -3  12   -3.38    6.45
  10   3  12   -3.14    5.61
  10   3  13   44.95    9.21
  10  -3  13   26.24    8.89
  10   3  13   47.00    9.36
  10  -3  13   56.95    9.92
  10   3  13   43.62    8.49
  10   3  14   57.62   10.41
  10  -3  14   93.12   13.24
  10   3  14   79.83   12.30
  10  -3  14   67.37   11.31
  10   3  14   77.81   11.09
  10   3  15   49.39   10.41
  10  -3  15   46.55   11.45
  10   3  15   53.76   10.99
  10  -3  15   51.05   11.37
  10   3  15   38.92    8.80
  10  -3  16  258.69   23.01
  10   3  16  208.31   20.04
  10  -3  16  228.06   20.57
  10   3  16  263.90   20.27
  10  -3  17   43.34   11.89
  10   3  17   43.44   10.49
  10  -3  17   72.97   13.00
  10   3  17   73.50   10.93
  10  -3  18   39.93   11.41
  10   3  18   40.56   10.61
  10  -3  18   26.77   10.06
  10   3  19   -2.33    8.12
  10  -3  19   -4.62    8.26
  10   3  20   19.20    9.90
  10  -3  20   -4.78    8.54
 -10   4  21   38.04   14.81
  10   4 -21   26.93   11.25
  10  -4 -21   38.93   12.19
 -10   4  20    3.34    9.73
  10   4 -20   -8.60   10.72
  10  -4 -20    2.88    8.69
 -10   4  19   92.65   17.62
  10  -4 -19   71.74   14.18
  10   4 -19   65.67   13.57
 -10   4  18   -9.15    9.80
  10   4 -18    7.81    8.37
  10  -4 -18   -2.63    8.45
 -10   4  17   51.95   10.85
 -10   4  17   46.22   12.42
  10   4 -17   51.83   12.70
  10  -4 -17   27.41   10.39
 -10   4  16    4.02    6.66
 -10   4  16    5.47    8.26
  10   4 -16    7.00    8.13
  10  -4 -16    2.36    8.01
 -10   4  15   15.52    7.88
 -10   4  15   10.33    8.07
 -10  -4  15   21.47   10.68
  10   4 -15   13.22    7.50
  10  -4 -15   19.99    7.76
 -10   4  14  239.04   19.40
 -10  -4  14  212.27   22.82
 -10   4  14  223.88   21.33
 -10   4  13    7.21    6.44
 -10   4  13    2.66    8.04
 -10  -4  13   -2.37    8.27
 -10   4  13    2.29    7.14
 -10  -4  12   39.84   11.19
 -10   4  12   51.76   10.38
 -10   4  12   27.62   11.55
 -10   4  11   15.16    6.73
 -10   4  11   26.09    6.46
  10   4 -11   12.83    5.49
  10  -4 -11   16.81    5.72
 -10   4  11   37.51   10.83
 -10   4  10  131.68   12.00
  10   4 -10  139.76   12.77
  10  -4 -10  122.63   12.04
 -10  -4  10  144.90   16.48
 -10   4  10   98.74   14.59
 -10   4   9   -2.35    3.77
 -10   4   9    4.09    6.18
  10  -4  -9   -2.34    3.65
  10   4  -9   -2.49    4.76
  10  -4  -9   -3.62    4.42
 -10  -4   9   -5.25    7.96
 -10  -4   8  632.82   35.26
 -10   4   8  646.49   36.96
 -10   4   8  680.19   32.56
  10  -4  -8  738.28   32.88
 -10  -4   8  654.85   37.10
 -10   4   8  625.98   36.69
 -10   4   8  644.04   34.61
  10   4  -8  686.29   32.78
  10  -4  -8  712.14   32.72
  10   4  -8  653.82   33.12
  10  -4  -8  651.33   32.67
 -10  -4   7    1.44    6.46
 -10   4   7    6.76    4.21
 -10   4   7    6.69    6.77
 -10   4   7   -1.78    4.99
  10  -4  -7    8.49    3.70
 -10  -4   7    8.48    6.99
 -10   4   7    2.79    5.55
  10  -4  -7    1.06    2.60
  10   4  -7   -1.09    3.06
  10   4  -7    1.20    3.36
  10  -4  -7    5.79    3.83
 -10   4   6   26.82    5.51
 -10   4   6   18.26    6.40
 -10  -4   6   29.86    8.17
  10  -4  -6   32.05    5.60
 -10   4   6   23.01    7.98
 -10   4   6   31.79    7.21
 -10  -4   6   35.44    8.56
 -10   4   6   17.31    6.39
  10   4  -6   22.40    4.87
  10  -4  -6   28.38    5.32
 -10   4   5  405.92   24.73
 -10   4   5  372.90   21.70
 -10  -4   5  392.44   21.53
 -10  -4   5  392.55   24.37
 -10   4   5  411.98   24.30
  10   4  -5  412.55   21.83
  10  -4  -5  388.90   21.37
 -10  -4   5  429.92   25.78
 -10   4   5  374.57   24.22
 -10   4   5  382.04   22.81
 -10   4   4   49.03    7.91
 -10  -4   4   67.85    8.68
 -10   4   4   41.44    7.81
 -10  -4   4   50.20   10.09
 -10  -4   4   44.83    8.05
 -10   4   4   49.52    8.00
  10   4  -4   59.54    6.95
  10  -4  -4   41.45    6.21
 -10   4   4   46.52    8.05
 -10  -4   4   68.23    9.62
 -10  -4   3  280.13   18.03
 -10  -4   3  315.42   21.01
 -10   4   3  315.50   18.97
 -10   4   3  294.80   19.31
  10   4  -3  294.45   17.27
  10  -4  -3  319.77   17.86
 -10  -4   3  274.48   19.32
 -10   4   3  270.86   18.88
 -10   4   2   25.18    5.78
 -10   4   2   22.18    5.39
 -10  -4   2   27.05    6.24
 -10   4   2   20.91    5.65
 -10  -4   2   25.83    6.78
 -10  -4   2   23.01    6.51
 -10   4   1   26.10    5.65
 -10  -4   1   34.02    6.64
 -10  -4   1   34.38    7.53
 -10   4   1   28.81    6.14
 -10  -4   1   35.84    6.20
 -10   4   1   28.68    5.96
 -10  -4   0  138.83   13.43
 -10   4   0  146.57   12.35
  10  -4   0  150.93   14.81
 -10  -4   0  153.61   11.98
 -10   4   0  162.43   12.46
 -10  -4   0  128.28   10.80
 -10   4   0  130.10   10.61
 -10  -4   0  160.83   12.11
 -10   4   0  146.17   11.38
 -10  -4   0  130.12   11.51
 -10   4   0  153.72   12.06
 -10   4  -1    1.15    2.98
 -10  -4  -1    1.91    4.28
 -10   4  -1   -1.19    4.63
 -10  -4  -1   -0.94    3.27
 -10   4  -1   -1.86    3.16
 -10  -4  -1   -1.02    4.50
 -10   4  -1   -2.91    5.12
 -10  -4  -1    1.32    6.41
  10  -4   1    3.32    5.17
  10   4   2  241.57   16.60
 -10  -4  -2  249.04   18.47
 -10   4  -2  229.19   17.15
 -10   4  -2  261.79   16.35
 -10  -4  -2  260.69   15.34
 -10   4  -2  242.69   15.15
 -10  -4  -2  257.45   16.52
  10  -4   2  240.47   18.68
 -10  -4  -2  247.38   15.70
  10   4   3    3.66    4.95
 -10  -4  -3    2.98    4.31
 -10   4  -3   -2.75    6.25
 -10  -4  -3   11.46    6.25
 -10   4  -3    1.10    4.94
 -10  -4  -3    4.57    2.85
 -10   4  -3    9.67    3.92
  10  -4   3    3.14    5.05
 -10  -4  -3    4.41    7.07
  10   4   4    1.28    5.18
  10  -4   4   12.28    5.99
 -10  -4  -4   20.25    9.25
  10   4   4   19.66    6.67
 -10   4  -4    7.48    6.70
 -10  -4  -4    7.50    5.77
 -10   4  -4    8.47    6.26
 -10  -4  -4    7.45    3.26
 -10   4  -4   11.30    4.01
 -10  -4  -5   52.80   11.26
  10   4   5   46.87    8.55
 -10  -4  -5   45.59    9.41
 -10   4  -5   42.67    8.91
  10  -4   5   56.56    9.60
 -10   4  -5   34.44    9.27
  10   4   5   53.31    8.66
  10   4   6   39.85    8.10
 -10  -4  -6   31.23   10.70
 -10  -4  -6   52.12   10.55
 -10   4  -6   51.97    9.83
  10  -4   6   43.27    8.68
 -10   4  -6   37.74   10.80
 -10  -4  -6   57.00    7.26
  10   4   6   69.51    9.66
  10   4   7    9.73    6.15
 -10  -4  -7    3.41    9.50
 -10   4  -7    9.87    9.08
  10  -4   7   20.55    6.99
 -10   4  -7   19.67   10.41
 -10  -4  -7   15.71    4.99
  10   4   7   18.82    6.50
 -10  -4  -8   99.42   10.07
  10   4   8  120.67   12.97
 -10  -4  -8  116.52   16.41
 -10   4  -8   72.34   13.37
  10   4   8   91.12   10.99
  10  -4   8   86.70   11.92
  10   4   8  107.55   11.72
  10  -4   8  105.53   11.55
 -10  -4  -9    5.90    4.41
  10   4   9    1.56    5.72
 -10  -4  -9   -4.12   11.58
 -10   4  -9    1.98   10.93
  10   4   9    5.54    5.50
  10  -4   9    1.70    5.79
  10   4   9   -1.47    5.96
  10  -4   9    5.83    5.57
  10  -4  10  204.86   17.66
  10   4  10  138.05   13.73
  10   4  10  196.86   16.30
  10  -4  10  198.54   16.19
  10   4  10  195.71   16.69
  10  -4  11   41.09    9.47
  10   4  11   40.28    9.21
  10  -4  11   55.40    9.70
  10   4  11   56.92   10.08
  10  -4  12    5.88    5.71
  10   4  12    6.78    6.20
  10  -4  12   -3.32    6.35
  10   4  12    1.72    6.00
  10  -4  13  100.54   14.01
  10   4  13  117.47   13.85
  10  -4  13   97.73   12.68
  10   4  13  126.87   14.19
  10  -4  14   -4.29    6.90
  10   4  14   -5.61    7.98
  10  -4  14   -5.50    7.00
  10   4  14    1.80    6.60
  10  -4  15   31.44    9.91
  10  -4  15   13.45    8.22
  10   4  15   15.66    7.94
  10   4  15    9.21    6.44
  10  -4  16   -7.03    8.77
  10   4  16  -10.22    7.97
  10  -4  16   -2.01    8.30
  10   4  16   -7.50    7.31
  10  -4  17    9.74    9.70
  10   4  17   21.27    8.80
  10  -4  17   20.97    8.83
  10   4  17   30.34    9.26
  10  -4  18   30.26   10.50
  10   4  18   68.45   12.73
  10  -4  18   41.48   10.73
  10   4  18   36.43    9.56
  10   4  19   47.88   11.71
  10  -4  19   22.61    9.72
 -10   5  20   -3.31    9.99
 -10   5  19   -3.18    8.95
 -10   5  18   11.49    8.04
 -10   5  18   18.19    9.76
  10   5 -18   27.07    9.61
 -10   5  17   73.87   13.09
 -10   5  17   51.90   12.86
  10   5 -17   46.67   10.94
 -10   5  16    8.68    6.77
 -10   5  16    5.48    7.40
 -10   5  15    8.39    6.54
 -10   5  15    2.60    7.84
 -10   5  14   54.83   10.76
 -10   5  14   46.59   11.45
 -10   5  13   33.45    9.39
 -10   5  13   35.36   11.86
 -10   5  13   27.87    9.12
 -10   5  12  472.88   30.28
 -10   5  12  522.39   28.32
 -10   5  12  491.08   34.50
 -10   5  11  173.11   15.03
 -10   5  11  185.65   17.60
 -10   5  10  581.16   30.59
 -10   5  10  553.77   35.11
  10   5  -9   78.55    9.47
  10  -5  -9   80.32    9.29
 -10   5   9   91.93   10.25
 -10   5   9   54.99   11.14
  10   5  -8   13.54    4.51
  10  -5  -8    9.52    4.06
 -10   5   8    9.24    4.84
 -10   5   8    7.91    6.36
 -10   5   7  352.09   21.94
  10  -5  -7  367.54   20.92
 -10   5   7  348.75   24.75
  10   5  -7  383.17   21.43
  10  -5  -7  389.22   21.28
 -10   5   6   -1.30    4.31
 -10   5   6   -1.73    5.56
 -10   5   6   -1.24    4.82
  10   5  -6    1.08    3.05
  10  -5  -6   -1.06    3.10
 -10   5   6   -1.77    6.48
 -10   5   5   31.25    6.45
 -10   5   5   32.50    7.37
 -10   5   5   40.39    7.33
  10   5  -5   32.88    5.33
  10  -5  -5   35.78    5.81
 -10  -5   5   38.30    8.29
 -10   5   5   30.82    7.25
  10   5  -4    2.98    2.45
  10  -5  -4    5.02    2.83
 -10   5   4    6.56    4.10
 -10   5   4    4.57    4.45
 -10   5   4    3.44    4.90
 -10  -5   4   15.45    5.78
 -10   5   4    7.43    5.44
 -10   5   3   -1.23    5.07
 -10  -5   3    2.45    6.96
 -10   5   3   -1.43    4.47
 -10   5   3    2.24    4.71
 -10  -5   3   -4.29    5.23
 -10   5   3   -2.73    4.39
 -10  -5   2    1.30    6.71
 -10   5   2    2.68    4.05
 -10   5   2   11.25    5.33
 -10  -5   2    2.65    4.73
 -10   5   2   -1.26    4.17
 -10   5   1   51.36    7.58
 -10   5   1   49.81    7.44
 -10  -5   1   57.55   10.38
 -10   5   1   65.66    8.60
 -10   5   1   62.11    7.68
 -10  -5   1   55.39    8.04
  10   5   0  152.87   12.51
 -10   5   0  126.93   11.54
 -10   5   0  141.55   12.71
 -10  -5   0  130.22   14.12
  10  -5   0  121.74   13.84
 -10   5   0  144.55   11.57
 -10  -5   0  139.75   11.69
 -10   5   0  126.58   10.98
 -10   5  -1   28.38    6.08
 -10   5  -1   26.25    5.20
  10   5   1   24.16    6.24
 -10   5  -1   25.71    5.31
  10  -5   1   37.77    8.30
 -10  -5  -1   35.32    9.24
 -10   5  -1   28.03    7.29
 -10  -5  -1   25.49    5.34
 -10   5  -1   22.84    4.96
 -10  -5  -2   19.41    9.70
  10  -5   2    6.71    5.73
 -10   5  -2   18.83    5.97
 -10   5  -2   19.68    4.49
 -10   5  -2   24.72    7.82
  10   5   2   22.81    6.43
  10   5   3  139.56   12.63
  10   5   3  116.55    9.38
  10  -5   3  132.48   13.67
 -10  -5  -3  126.27   15.85
 -10   5  -3  123.37   13.68
 -10   5  -3  103.50   11.06
  10  -5   4  500.68   28.84
 -10   5  -4  516.35   29.82
  10   5   4  474.40   27.20
 -10  -5  -4  482.78   30.77
  10   5   4  463.66   23.56
  10  -5   5   47.70    8.86
 -10   5  -5   37.12   10.30
  10   5   5   33.51    8.37
  10   5   5   33.74    5.98
  10  -5   6   -4.80    5.44
 -10   5  -6    7.73    9.41
  10   5   6   -1.52    6.50
  10   5   6    7.04    4.15
  10   5   7   87.37   11.70
  10  -5   7   76.42   11.27
  10   5   8   36.27    8.70
  10  -5   8   33.58    8.05
  10   5   9   -1.47    5.95
  10  -5   9   -2.90    6.09
  10   5   9   -1.71    6.54
  10  -5   9   -6.96    6.07
  10   5  10   91.48   11.27
  10  -5  10   75.02   10.41
  10   5  10  111.35   13.21
  10  -5  10  126.97   14.04
  10  -5  11  124.77   13.17
  10  -5  11  132.67   14.60
  10   5  11  103.82   13.48
  10  -5  12  194.38   18.42
  10   5  12  217.86   17.86
  10  -5  12  213.46   17.78
  10   5  12  183.36   17.89
  10  -5  13   26.97    9.33
  10   5  13   15.67    7.84
  10   5  13   32.61    9.13
  10  -5  14    4.34    8.28
  10   5  14   -5.46    8.03
  10   5  14    3.92    7.00
  10  -5  15    9.05    7.29
  10   5  15   20.91    7.85
  10   5  15   11.96    7.62
  10  -5  16    4.70    8.59
  10   5  16   -4.05    7.41
  10  -5  17   12.23    9.72
  10   5  17   -4.09    8.29
  10  -5  18    7.59    9.25
  10   5  18    4.14    8.07
 -10   6  19    6.32    9.85
 -10   6  18   36.20   12.74
 -10   6  18   41.53   11.66
 -10   6  17    5.76    8.40
 -10   6  17    9.54    7.67
 -10   6  16   -2.74    9.07
 -10   6  16   -4.63    7.45
 -10   6  15  119.88   17.22
 -10   6  15  137.16   16.50
 -10   6  14   19.82    9.33
 -10   6  14   48.13   11.23
 -10   6  13   16.24    5.95
 -10   6  13   25.05   11.28
 -10   6  13    4.71    7.80
 -10   6  13    2.13    6.63
 -10   6  12    1.62    5.06
 -10   6  12   10.37    7.58
 -10   6  12    7.92    9.20
 -10   6  11  132.27   13.40
 -10   6  11  135.77   15.40
 -10   6  11   89.43   15.21
 -10   6  10  162.44   14.40
 -10   6  10  119.31   15.85
 -10   6   9  456.66   30.48
 -10   6   9  457.83   26.87
 -10   6   8    4.12    5.79
 -10   6   8    4.49    4.04
 -10   6   7  145.38   15.20
 -10   6   7  143.98   13.35
 -10   6   6   -1.82    5.85
 -10   6   6   -1.48    3.99
 -10   6   5   79.04   10.65
 -10   6   5   45.89    8.08
 -10   6   4   -1.62    5.20
 -10   6   4   -2.99    5.59
 -10   6   3   63.74    9.28
 -10   6   2   -7.19    4.76
 -10  -6   1   -3.19    9.88
 -10   6   1   -1.37    3.85
  10   6  -1    3.54    4.60
 -10  -6   0    6.72   10.48
 -10   6   0   11.85    4.50
  10   6   0   17.43    6.38
  10  -6   1    8.92    7.23
 -10  -6  -1    3.52   10.46
 -10   6  -1    3.88    3.64
  10   6   1    2.62    5.60
  10  -6   2   52.62    9.92
 -10  -6  -2   44.24   13.20
 -10   6  -2   56.09    7.81
  10   6   2   42.69    8.56
  10  -6   3   25.73    7.94
  10   6   3   13.06    6.53
  10  -6   4  172.84   16.08
  10   6   4  156.67   14.78
  10  -6   5   44.94    8.80
  10   6   5   46.14    9.38
  10   6   5   60.38    7.75
 -10   6  -5   67.44   13.31
  10   6   6   33.11    8.71
  10  -6   6   24.93    7.39
  10   6   6   27.61    5.92
  10  -6   7  334.51   22.37
  10   6   7  276.51   18.25
  10   6   7  301.70   21.97
  10   6   8   -5.38    6.40
  10  -6   8   -5.16    6.14
  10   6   8   -1.23    4.51
  10  -6   9  477.69   28.72
  10   6   9  437.12   28.58
  10   6   9  441.44   25.24
  10  -6  10   18.42    7.87
  10   6  10    7.64    7.30
  10  -6  11    7.66    7.01
  10   6  11    9.81    7.50
  10  -6  12   81.90   12.40
  10   6  12   84.57   13.45
  10  -6  13   29.15    8.92
  10   6  13   14.43    8.83
  10  -6  14   58.61   11.62
  10   6  14   46.09   10.98
  10  -6  15    2.26    7.48
  10   6  15    8.54    8.32
  10  -6  16   11.75    9.16
  10   6  16    8.67    7.37
  10  -6  17   17.02    9.11
  10   6  17   19.69    9.96
 -10   7  18   -3.00    9.63
 -10   7  18   -2.58    9.20
 -10   7  17   -5.75    9.76
 -10   7  17   -7.56    9.01
 -10   7  16    2.75    9.35
 -10   7  16   12.28    7.90
 -10   7  15   -5.24    8.17
 -10   7  15    4.79    7.69
 -10   7  14   -2.34    6.82
 -10   7  14   -7.52    8.73
 -10   7  14   -1.80    5.62
 -10   7  13   77.65   13.34
 -10   7  13   57.52   12.53
 -10   7  13   76.78   14.60
 -10   7  13   87.43   11.85
 -10   7  12   -2.24    7.60
 -10   7  12    8.13    8.96
 -10   7  12    5.40    5.61
 -10   7  11  287.54   23.30
 -10   7  11  290.97   21.84
 -10   7  11  315.39   26.27
 -10   7  10   -1.72    5.37
 -10   7  10   24.22   10.51
 -10   7   9   10.16    5.91
 -10   7   9    6.84    6.41
 -10   7   8   73.72   10.61
 -10   7   8   75.35   11.67
 -10   7   7   41.63    8.38
 -10   7   7   58.68   10.48
 -10   7   6   48.28    8.72
 -10   7   6   32.36    8.38
 -10   7   5  112.95   12.71
 -10   7   5  113.90   13.14
 -10   7   4   -1.67    4.70
 -10   7   4   -1.71    5.96
 -10   7   3   35.29    7.86
 -10   7   3   40.48    8.19
  10   7  -2   19.23    5.72
 -10   7   2   12.31    5.90
  10   7  -1   50.89    8.08
 -10   7   1   22.00    6.47
  10   7   0  209.58   16.19
 -10   7   0  201.38   15.93
  10   7   1   12.76    5.65
 -10   7  -1   12.30    5.13
  10   7   2  314.70   20.57
 -10   7  -2  253.21   18.08
  10   7   3  122.09   13.22
 -10   7  -3  114.51   11.41
  10   7   4   77.04   11.17
  10   7   5  157.41   15.49
  10   7   6  160.48   16.28
  10   7   7   -1.86    7.52
  10   7   8    7.67    6.85
  10   7   9   -5.93    8.15
  10   7   9    2.77    4.19
  10   7  10   56.95   11.61
  10   7  10   57.85    8.67
  10   7  11    6.27    8.47
  10   7  11   16.55    6.11
  10   7  12    6.41    8.82
  10   7  13    4.37    7.81
  10   7  14   13.37    9.20
  10   7  15   38.37   10.93
 -10   8  15   83.68   14.68
 -10   8  14    9.76    5.91
 -10   8  14   19.89    8.68
 -10   8  13    3.89    6.25
 -10   8  13   -4.86    8.26
 -10   8  13   14.63    8.71
 -10   8  12   58.68   11.05
 -10   8  12   50.30   11.66
 -10   8  11   62.39   10.48
 -10   8  11   44.81   11.04
 -10   8  10   20.87    7.13
 -10   8   9   -3.72    7.24
 -10   8   8   11.04    6.27
 -10   8   7   11.02    6.42
 -10   8   6   -3.67    5.91
 -10   8   5  417.73   27.16
 -10   8   4   64.58   10.71
 -10   8   3  849.17   43.90
 -10   8   2    1.86    5.42
  10   8   0   -4.31    5.82
  10   8   1   73.02   10.58
  10   8   2   28.78    8.60
  10   8   3  142.89   14.85
  10   8   4    5.28    6.58
  10   8   5   51.14   10.52
  10   8   6    5.70    7.98
  10   8   7   -3.93    7.66
  10   8   8   -2.03    8.83
  10   8   9   77.50   13.44
  10   8  10    8.60    7.69
  10   8  11  121.29   15.76
  10   8  12   69.88   13.37
  10   8  13   43.68   11.71
  10   8  13   42.31    8.97
 -10   9  14    4.16    6.89
 -10   9  13    8.34    6.89
 -10   9  13   -5.17    9.01
 -10   9  12   37.90    9.63
 -10   9  12   22.95    9.17
 -10   9  11   -2.11    6.57
 -10   9  11    2.52    7.84
 -10   9  10   14.39    7.00
 -10   9   9    6.08    6.70
 -10   9   8   18.07    7.02
 -10   9   7   32.03    8.76
 -10   9   6   19.99    7.00
 -10   9   5   26.13    7.57
 -10   9   4   18.08    7.20
 -10   9   3    8.05    5.87
 -10   9   2    6.04    5.67
 -10   9   1  272.33   21.88
  10   9   2   11.90    6.90
  10   9   3    5.34    6.36
  10   9   4   46.47   10.47
  10   9   5   48.40   10.80
  10   9   6   52.08   11.19
  10   9   7   -2.08    7.93
  10   9   8   -2.14    8.50
  10   9   9   43.95   11.33
  10   9  10    9.05    9.17
  10   9  11   50.66   11.77
 -10  10  10    2.21    5.98
 -10  10   9   82.90   12.94
 -10  10   8   -2.18    5.36
 -10  10   7  211.95   19.90
 -10  10   6   28.06    8.80
 -10  10   5    8.66    6.54
 -10  10   4   41.08    9.78
 -10  10   3    2.15    6.72
 -10  10   2   69.09   11.42
 -10  10   1   62.42   11.09
 -10  10   0   77.34   12.37
  10  10   4    9.75    8.61
  10  10   5  -10.15    8.08
  10  10   6    6.30    8.81
  10  10   7  154.16   18.24
  10  10   8   13.40    9.22
 -10  11   2    6.86    5.91
 -10  11   1    4.54    6.62
  11   0 -21   -6.21    9.37
 -11   0  21   -3.57   11.80
  11   0 -20   80.72   15.85
 -11   0  20  137.42   21.37
  11   0 -19   -2.86    8.65
 -11   0  19   -6.60   11.50
  11   0 -18   68.51   14.23
 -11   0  18   75.63   16.66
  11   0 -17    2.61    7.88
 -11   0  17   -6.01   11.23
  11   0 -16   27.28   10.11
 -11   0  16   42.74   12.81
  11   0 -15   -4.71   10.22
 -11   0  15    8.07    8.39
 -11   0  14  196.51   20.43
 -11   0  13   -2.35    7.31
 -11   0  12  207.31   19.86
 -11   0  12  198.40   20.50
  11   0 -11   -1.32    3.86
 -11   0  11   -2.02    7.23
 -11   0  11   -2.27    8.10
  11   0 -10  707.41   35.68
  11   0 -10  767.58   34.96
 -11   0  10  686.15   40.11
 -11   0  10  648.92   38.86
 -11   0  10  674.29   37.93
  11   0  -9   -1.35    3.64
 -11   0   9    9.77    7.30
  11   0  -9   -1.15    3.23
 -11   0   9   11.75    8.07
 -11   0   9   -1.72    5.53
 -11   0   8   -2.10    6.94
  11   0  -8   -1.27    3.82
 -11   0   8    5.43    6.15
 -11   0   8   -7.29    8.52
  11   0  -8    1.07    2.89
 -11   0   8    3.18    5.26
 -11   0   7    3.35    5.98
  11   0  -7   -1.00    3.01
 -11   0   7    1.70    6.34
 -11   0   7   -3.89    6.07
  11   0  -7   -1.18    4.41
  11   0  -7   -1.31    3.68
 -11   0   6   52.34    8.37
  11   0  -6   42.90    5.79
 -11   0   6   36.36    8.41
 -11   0   6   41.43    8.68
  11   0  -6   48.14    6.84
  11   0  -5    0.89    2.31
 -11   0   5   -5.88    5.61
  11   0  -5    1.17    2.41
 -11   0   5    3.32    4.66
 -11   0   4   81.40   10.87
 -11   0   4   71.54    8.75
  11   0  -4   69.30    7.79
 -11   0   4   80.87    9.86
 -11   0   3    1.45    4.80
 -11   0   3    1.19    2.63
  11   0  -3   -3.27    3.18
 -11   0   3   -1.40    3.63
 -11   0   2   17.12    5.53
 -11   0   2    2.18    3.07
  11   0  -2   -1.09    3.17
 -11   0   2   11.62    4.15
 -11   0   1   -1.21    4.43
 -11   0   1   -1.21    3.40
 -11   0   1   -2.02    3.14
 -11   0   0   42.17    5.80
 -11   0   0   27.54    6.23
 -11   0   0   35.87    7.02
 -11   0   0   25.89    5.04
 -11   0  -1   -2.25    4.11
 -11   0  -1   -3.23    5.18
 -11   0  -1   -0.97    3.47
  11   0   1    3.43    5.51
 -11   0  -2 1213.24   49.67
 -11   0  -2 1126.71   50.22
 -11   0  -2 1184.57   49.68
  11   0   2 1263.13   55.46
 -11   0  -2 1165.71   50.82
 -11   0  -3   -1.00    4.62
 -11   0  -3    1.19    5.09
 -11   0  -3   -2.29    5.13
 -11   0  -3   -2.03    3.35
  11   0   3    1.61    4.71
 -11   0  -4 1199.24   51.69
 -11   0  -4 1196.63   53.50
 -11   0  -4 1231.02   53.36
  11   0   4 1330.06   56.57
 -11   0  -5    4.40    5.43
 -11   0  -5    1.39    6.33
 -11   0  -5    1.34    5.70
  11   0   5   -1.55    5.11
 -11   0  -6  759.24   36.43
  11   0   6  762.10   38.73
 -11   0  -6  778.93   39.39
 -11   0  -6  812.51   39.41
 -11   0  -7    2.44    6.08
  11   0   7    1.55    5.41
 -11   0  -7    5.05    8.20
  11   0   7   -4.41    5.37
 -11   0  -7   -1.62    7.87
 -11   0  -8   93.97   11.31
  11   0   8   89.43   10.99
  11   0   8   93.26   11.75
 -11   0  -8   91.13   13.70
 -11   0  -8   58.96   12.58
 -11   0  -9   -2.73    6.81
 -11   0  -9   -3.24    4.53
  11   0   9   -3.27    5.98
  11   0   9   -1.57    5.99
  11   0  10    1.70    5.46
  11   0  10   -1.63    5.83
 -11   0 -10    2.89    7.48
  11   0  11   -1.77    6.17
  11   0  11   -1.70    6.23
  11   0  12   -1.85    6.75
  11   0  12   -3.56    6.21
  11   0  13   -1.93    6.56
  11   0  13   -5.59    7.69
  11   0  14   -2.02    6.29
  11   0  14   -1.95    6.96
  11   0  15    2.10    7.13
  11   0  15   -4.07    7.94
  11   0  16   26.23    9.21
  11   0  16   21.24    9.10
  11   0  17    6.81    7.92
  11   0  17  -11.04    8.61
  11   0  18   16.44    8.20
  11   0  18   16.03    8.94
  11   0  19   -2.42    9.25
  11   0  19    2.36    8.84
  11   0  20  102.07   15.81
  11   1 -21   -3.10    9.35
  11  -1 -21    6.20    9.35
 -11  -1  21    3.56   11.45
 -11   1  21   24.96   13.33
  11   1 -20   38.69   12.96
  11  -1 -20   23.83   10.70
 -11  -1  20   55.05   16.35
 -11   1  20   24.05   13.96
  11   1 -19   -8.57   10.68
  11  -1 -19  -20.01   10.69
 -11  -1  19    3.30   10.62
 -11   1  19   13.17   11.19
  11   1 -18   13.64    9.27
  11  -1 -18   -5.46   10.21
 -11  -1  18    6.32   11.29
 -11   1  18    6.30   11.24
  11   1 -17   31.22   10.39
  11  -1 -17   31.26   10.41
 -11  -1  17   30.13   13.12
 -11   1  17   29.95   12.40
  11   1 -16   94.00   14.83
  11  -1 -16   61.86   12.52
 -11  -1  16   86.03   16.36
 -11   1  16   93.41   15.86
  11   1 -15   18.77    8.41
  11  -1 -15   14.09    8.41
 -11   1  15   29.31   10.40
 -11  -1  15   13.58   10.60
 -11   1  14  144.44   18.07
 -11  -1  14  189.28   20.64
 -11   1  13  176.91   18.73
 -11   1  13  154.24   18.82
 -11  -1  13  174.57   19.01
 -11  -1  12   -2.23    7.76
 -11   1  12    2.17    7.56
 -11   1  12    4.93    8.60
 -11   1  11    2.30    7.82
 -11  -1  11    2.06    7.35
 -11  -1  11   20.02    9.50
 -11   1  11   12.09    7.37
  11   1 -11   11.77    4.79
 -11   1  10  102.56   10.54
  11  -1 -10   88.90   10.77
  11   1 -10  134.56   12.84
 -11  -1  10  128.29   15.65
 -11  -1  10  115.41   14.10
 -11   1  10  120.06   13.99
 -11   1  10  130.98   15.32
 -11   1  10  124.73   15.80
  11   1 -10  125.13   11.24
  11  -1 -10  122.42   11.36
 -11  -1  10   95.61   14.80
  11   1  -9  109.37   11.50
  11  -1  -9   86.86   10.18
 -11  -1   9  138.96   14.41
 -11   1   9  125.82   14.43
  11   1  -9  125.96   10.92
  11  -1  -9  115.07   10.88
 -11  -1   9  143.50   15.40
 -11  -1   9  138.03   15.98
 -11   1   9  123.30   15.50
 -11  -1   8   58.71    9.34
 -11  -1   8   76.18   12.31
 -11   1   8   50.28   10.68
  11   1  -8   66.84    8.33
  11  -1  -8   58.61    7.89
  11  -1  -8   56.72    8.14
 -11  -1   8   53.02    9.69
  11  -1  -8   65.78    7.80
 -11   1   8   59.38    9.83
 -11  -1   8   73.49   11.83
 -11   1   8   70.93   11.54
  11   1  -8   60.34    7.21
 -11  -1   7   84.01   10.46
 -11  -1   7   83.91   11.40
 -11  -1   7  104.39   11.82
 -11   1   7   86.19   12.08
 -11   1   7  101.38   11.90
  11   1  -7   98.25    8.68
  11  -1  -7   87.38    8.51
  11   1  -7  100.61    9.74
  11  -1  -7   93.74    9.60
 -11  -1   7   80.57   11.94
 -11   1   7   81.49   12.08
  11   1  -7   53.88    8.09
  11  -1  -7   72.83    9.04
 -11  -1   6  192.99   15.77
 -11   1   6  204.62   16.31
 -11   1   6  195.16   16.53
 -11  -1   6  229.85   17.49
  11   1  -6  189.33   12.64
  11  -1  -6  212.72   13.55
 -11   1   6  207.44   18.07
  11   1  -6  197.50   14.52
  11  -1  -6  193.29   14.35
 -11  -1   6  176.42   16.59
 -11   1   6  143.49   15.41
 -11   1   5    4.82    2.46
 -11  -1   5    8.25    4.68
  11   1  -5    9.30    3.24
  11  -1  -5    7.51    3.03
 -11   1   5    5.89    4.45
 -11  -1   5   16.37    6.14
 -11   1   5    7.33    5.49
  11   1  -5   15.21    4.19
  11  -1  -5    8.10    3.39
 -11  -1   5   10.08    4.73
 -11   1   5    4.97    4.29
 -11  -1   5   12.83    7.29
 -11   1   5    9.78    5.96
 -11  -1   4  393.50   22.49
 -11   1   4  379.87   22.61
  11   1  -4  346.87   20.65
  11  -1  -4  422.18   21.86
 -11  -1   4  367.08   23.45
 -11   1   4  340.38   22.88
 -11  -1   4  403.43   25.39
 -11   1   4  409.00   24.44
 -11   1   3    4.96    3.35
 -11  -1   3    5.75    3.36
  11   1  -3    3.27    2.95
  11  -1  -3    3.28    2.70
 -11  -1   3   -1.42    4.42
 -11   1   3    1.40    4.08
 -11   1   3    2.73    4.39
 -11  -1   3    9.06    5.39
 -11   1   2    1.14    3.20
 -11  -1   2   -3.16    3.48
  11   1  -2   -1.09    2.39
 -11  -1   2   -1.30    3.52
 -11   1   2   -2.58    3.76
 -11  -1   2    1.37    4.52
 -11   1   2   -3.81    5.15
 -11  -1   1  488.01   24.23
 -11   1   1  468.67   24.59
 -11  -1   1  516.05   26.73
 -11   1   1  486.43   25.94
 -11  -1   1  447.09   24.43
 -11   1   1  475.96   24.74
 -11  -1   1  474.84   25.80
 -11   1   1  506.55   26.31
 -11  -1   0   92.68    9.36
 -11  -1   0  115.84    9.30
 -11   1   0  104.03    9.33
  11  -1   0  115.77   13.13
 -11  -1   0   88.60    9.93
 -11   1   0   84.06    9.61
 -11  -1   0   90.82    8.89
 -11   1   0   98.98    9.33
 -11  -1   0   93.40    9.65
 -11   1   0  107.29   10.13
  11  -1   1    3.48    5.25
  11   1   1   -1.71    5.94
 -11  -1  -1    1.00    4.69
 -11  -1  -1    1.11    4.49
 -11   1  -1    3.43    4.80
 -11  -1  -1   -3.26    4.48
 -11   1  -1   -5.32    4.84
 -11  -1  -1   -0.97    3.79
 -11   1  -1    0.98    3.43
  11   1   2  182.18   16.40
  11  -1   2  205.38   17.20
 -11   1  -2  199.90   14.86
 -11  -1  -2  201.56   14.73
 -11  -1  -2  216.79   14.69
 -11  -1  -2  206.29   11.75
 -11  -1  -2  196.50   14.64
 -11   1  -2  220.35   14.99
 -11   1  -2  228.01   14.37
 -11  -1  -2  230.19   14.33
  11   1   3  438.92   27.18
  11  -1   3  455.58   27.08
 -11   1  -3  473.09   25.57
 -11  -1  -3  441.24   24.42
 -11  -1  -3  473.24   24.70
 -11  -1  -3  455.44   21.30
 -11   1  -3  441.60   24.54
 -11  -1  -3  426.97   23.18
 -11   1  -3  463.15   23.88
 -11  -1  -3  469.78   25.15
 -11  -1  -4  112.64    8.88
  11   1   4  106.68   12.03
  11  -1   4  103.16   12.34
 -11  -1  -4  113.10   11.31
 -11  -1  -4  108.72   11.22
 -11   1  -4   85.31   10.97
 -11  -1  -4  127.75   11.90
 -11   1  -4  116.40   11.66
 -11  -1  -5   24.12    4.69
  11   1   5   23.17    7.26
 -11  -1  -5   14.40    6.45
 -11   1  -5   16.39    5.75
  11  -1   5   20.21    6.89
 -11  -1  -5   18.89    7.25
 -11   1  -5   24.65    7.86
 -11  -1  -5   20.23    7.54
 -11   1  -5   32.03    8.29
 -11  -1  -6  178.33   12.33
  11   1   6  147.33   14.49
  11  -1   6  152.30   14.52
 -11   1  -6  162.02   13.00
 -11  -1  -6  175.74   14.46
 -11  -1  -6  155.44   15.27
 -11   1  -6  171.60   15.99
 -11  -1  -6  171.91   15.54
 -11   1  -6  169.99   15.39
 -11  -1  -7  254.64   16.30
 -11   1  -7  276.71   17.78
 -11  -1  -7  279.77   19.35
  11   1   7  286.19   19.81
  11  -1   7  288.10   20.23
 -11  -1  -7  257.55   20.30
 -11   1  -7  265.33   21.15
 -11  -1  -7  297.04   21.19
 -11   1  -7  240.35   19.83
  11   1   7  276.08   19.33
  11  -1   7  248.52   18.73
 -11  -1  -8  100.92    9.68
 -11   1  -8   58.43    9.41
 -11  -1  -8   81.27   13.99
 -11   1  -8   55.30   12.42
 -11  -1  -8   70.78   11.36
  11   1   8   71.58   10.29
  11  -1   8   82.56   11.12
 -11  -1  -8   79.91   12.64
 -11   1  -8   96.00   14.30
  11   1   8   81.90   11.11
  11  -1   8   84.91   11.04
 -11  -1  -9  182.78   17.10
 -11   1  -9  209.73   16.36
  11   1   9  232.98   18.01
  11  -1   9  210.94   17.95
 -11  -1  -9  231.25   15.54
 -11  -1  -9  208.44   20.58
  11   1   9  201.04   17.04
  11  -1   9  217.92   17.62
  11   1  10   13.24    6.73
  11  -1  10   29.60    8.16
  11   1  10   16.34    7.11
  11  -1  10    4.89    7.09
 -11   1 -10   27.95    8.38
  11   1  11   66.56   10.79
  11  -1  11   74.80   10.99
  11   1  11   74.16   10.81
  11  -1  11   81.56   11.51
  11   1  12   66.08   11.01
  11  -1  12   78.24   11.89
  11   1  12   77.27   11.76
  11  -1  12   79.61   11.74
  11   1  13    3.73    6.35
  11  -1  13    5.57    6.64
  11   1  13    5.63    6.55
  11  -1  13    5.93    6.36
  11   1  14   25.39    8.70
  11  -1  14   40.82    9.66
  11   1  14   33.31    9.12
  11  -1  14   49.54   10.25
  11   1  15   28.55    8.91
  11  -1  15   34.50   10.06
  11   1  15   22.46    8.63
  11  -1  15   38.74    9.98
  11   1  16   57.42   11.93
  11  -1  16   48.69   10.92
  11  -1  16   64.94   12.54
  11   1  17   37.54   10.55
  11  -1  17   30.79   10.08
  11   1  17   35.32   10.26
  11  -1  17   48.75   11.38
  11   1  18   -2.29    8.18
  11  -1  18   -4.57    9.41
  11   1  18    2.28    6.89
  11  -1  18   14.40    8.57
  11   1  19    2.37    7.61
  11  -1  19    2.36    8.01
  11   1  19   -2.36    7.79
  11  -1  19   -2.48    7.97
  11   1  20   24.25   10.04
  11   2 -21   12.28    9.27
  11  -2 -21   12.28    9.58
 -11  -2  21   21.42   13.91
 -11   2  21   -3.56   11.78
  11   2 -20   -2.95    9.77
  11  -2 -20    2.96    9.22
 -11  -2  20   -3.44   11.06
 -11   2  20    3.44   11.36
  11   2 -19   19.79   10.10
  11  -2 -19    2.83    8.84
 -11  -2  19    9.92   11.24
 -11   2  19   13.19   11.50
  11   2 -18   21.63    9.94
  11  -2 -18   24.39    9.74
 -11  -2  18   57.13   16.07
 -11   2  18   37.69   12.53
  11   2 -17    2.57    7.23
  11  -2 -17    5.16    8.77
 -11   2  17    2.99    9.02
 -11  -2  17   15.13   11.31
  11   2 -16    2.45    6.88
  11  -2 -16   -2.45    7.88
 -11   2  16    5.63    8.50
 -11  -2  16   -2.89   10.06
 -11   2  15   13.25    8.77
 -11  -2  15    2.73   10.22
 -11   2  14   17.44    9.32
 -11   2  14   19.62   10.26
 -11  -2  14    5.17    9.01
 -11   2  13   13.30    9.73
 -11   2  13   18.67    8.92
 -11  -2  13    2.42    9.45
  11   2 -12    4.06    4.61
 -11   2  12   11.39    6.18
 -11   2  12   12.51    9.95
 -11   2  12    2.18    6.80
 -11  -2  12   11.33    9.52
  11   2 -11    1.27    4.19
 -11   2  11    1.37    5.23
 -11   2  11   -2.34    8.76
 -11   2  11    2.04    6.36
 -11  -2  11   12.65    9.00
 -11   2  10   28.43    8.38
 -11   2  10   29.89   10.81
  11   2 -10   33.10    6.01
 -11   2  10   21.20    6.57
  11   2 -10    8.56    4.37
  11  -2 -10   21.08    5.73
 -11  -2  10   31.08    9.11
 -11  -2  10   14.17    8.81
  11   2  -9   12.01    5.23
  11  -2  -9   20.95    5.53
 -11  -2   9   16.03    7.24
 -11  -2   9   18.75    8.42
  11   2  -9   12.00    4.12
 -11   2   9   32.74    8.90
  11  -2  -9   21.31    5.17
 -11  -2   9   23.97    9.86
 -11   2   9   19.71    8.58
 -11  -2   8  232.89   19.36
 -11  -2   8  280.70   20.04
 -11   2   8  279.94   21.26
  11   2  -8  275.14   16.45
  11  -2  -8  277.93   17.07
 -11  -2   8  268.04   21.12
 -11   2   8  246.78   20.42
  11   2  -8  231.01   16.70
  11  -2  -8  260.72   17.23
 -11  -2   8  218.61   20.48
 -11   2   8  261.14   21.61
  11   2  -8  274.05   18.39
  11  -2  -8  256.29   17.64
 -11  -2   7   97.10   11.34
 -11   2   7  128.82    9.45
 -11   2   7  111.99   13.08
 -11  -2   7  122.19   12.92
 -11   2   7  116.21   13.04
  11   2  -7  107.30    9.30
  11  -2  -7  113.78   10.29
 -11  -2   7   98.92   12.80
  11   2  -7  110.70   10.48
  11  -2  -7  121.25   10.69
 -11  -2   7   97.59   13.48
 -11   2   7  124.69   14.62
  11   2  -7  120.23   11.25
  11  -2  -7  103.86   10.56
 -11   2   6 1066.58   50.83
 -11  -2   6 1097.61   48.90
 -11  -2   6 1049.56   49.39
 -11   2   6 1085.60   44.77
 -11  -2   6 1004.23   50.34
 -11   2   6 1041.75   50.47
  11   2  -6 1114.43   45.29
  11  -2  -6 1088.17   46.35
 -11   2   6 1138.42   51.53
 -11  -2   6 1045.97   52.00
 -11   2   6 1150.85   52.85
  11   2  -6 1078.91   47.96
  11  -2  -6 1165.38   48.34
 -11  -2   5  264.70   17.20
 -11  -2   5  244.71   17.30
 -11   2   5  255.60   14.51
 -11   2   5  277.39   18.76
 -11  -2   5  243.47   18.30
 -11   2   5  217.54   17.35
  11   2  -5  228.69   14.04
 -11   2   5  272.73   19.14
  11   2  -5  239.99   16.15
  11  -2  -5  253.77   16.24
 -11  -2   5  229.18   18.40
 -11   2   5  237.19   18.47
 -11  -2   4   -0.92    3.80
 -11  -2   4    3.65    3.91
 -11   2   4    4.21    3.63
 -11   2   4   -1.40    5.11
 -11  -2   4   19.18    7.69
  11   2  -4    4.46    3.25
  11  -2  -4    4.45    2.60
 -11  -2   4    6.29    4.75
 -11   2   4    1.53    4.13
 -11  -2   3    0.96    4.28
 -11   2   3    1.29    3.90
 -11  -2   3   -2.23    3.59
 -11  -2   3   -1.56    5.14
 -11   2   3    1.31    4.44
  11   2  -3   -2.18    3.06
  11  -2  -3    3.29    2.96
 -11  -2   3   -1.45    4.78
 -11   2   3   -1.41    4.11
 -11  -2   2  379.73   22.89
 -11   2   2  360.06   21.56
 -11  -2   2  355.73   20.18
 -11   2   2  324.90   20.69
 -11  -2   2  398.57   22.68
 -11   2   2  391.93   22.33
 -11  -2   2  377.73   20.61
 -11  -2   1  108.29   10.17
 -11  -2   1  112.49    9.46
 -11   2   1   99.13    9.62
 -11  -2   1  130.41   11.89
 -11   2   1  102.31   10.63
 -11  -2   1  102.64    9.74
 -11   2   1  117.09   10.15
 -11   2   1  107.65   10.28
 -11  -2   1   90.32    9.93
 -11   2   0  386.31   21.70
  11  -2   0  372.99   25.09
 -11  -2   0  379.99   21.47
 -11  -2   0  367.51   19.29
 -11   2   0  339.86   20.31
 -11  -2   0  335.86   20.34
 -11  -2   0  367.09   20.33
 -11   2   0  363.95   20.27
 -11  -2   0  422.92   22.06
 -11   2   0  360.74   20.68
 -11  -2  -1   11.04    5.56
 -11  -2  -1   27.42    4.64
  11  -2   1   33.49    8.39
 -11  -2  -1   14.18    5.15
 -11   2  -1   24.65    6.04
 -11  -2  -1   17.65    4.18
 -11   2  -1   27.89    5.03
 -11  -2  -1   18.63    5.52
 -11   2  -1   23.21    5.80
  11  -2   2   -1.71    5.16
  11   2   2    1.68    5.85
 -11  -2  -2   -2.31    5.40
 -11  -2  -2    4.36    4.17
 -11   2  -2    6.10    5.21
 -11  -2  -2    5.60    5.09
 -11   2  -2   -2.17    4.48
 -11  -2  -2   10.68    3.71
 -11   2  -2    3.01    3.03
 -11  -2  -3  656.30   28.36
  11   2   3  651.99   35.13
  11  -2   3  599.35   34.05
 -11  -2  -3  611.47   31.22
 -11  -2  -3  618.36   31.83
 -11   2  -3  652.66   32.79
 -11  -2  -3  650.94   31.98
 -11   2  -3  684.30   32.18
 -11  -2  -3  639.49   30.36
 -11   2  -3  673.55   31.11
 -11  -2  -4  277.65   15.95
  11   2   4  277.12   20.42
  11  -2   4  294.91   20.90
 -11  -2  -4  340.42   20.29
 -11  -2  -4  328.96   20.05
 -11   2  -4  257.85   19.23
 -11  -2  -4  264.08   18.73
 -11   2  -4  318.43   19.64
 -11  -2  -4  294.65   17.67
 -11   2  -4  332.98   18.90
 -11  -2  -5  353.43   19.07
 -11  -2  -5  346.98   22.31
  11   2   5  377.70   23.63
  11  -2   5  355.91   23.43
 -11  -2  -5  325.67   21.77
 -11   2  -5  386.59   24.12
 -11  -2  -5  385.49   23.19
 -11   2  -5  408.38   23.56
 -11   2  -6   -1.02    4.70
 -11   2  -6    5.92    6.42
 -11  -2  -6   12.09    7.72
 -11  -2  -6    2.81    6.75
  11   2   6    3.06    5.60
 -11  -2  -6   -1.45    6.79
  11  -2   6    7.98    5.42
 -11   2  -6    8.33    7.34
 -11  -2  -6    6.47    3.95
 -11  -2  -7   55.10    7.22
 -11   2  -7   35.17    7.04
 -11  -2  -7   56.63   11.54
 -11   2  -7   68.43   11.43
 -11  -2  -7   43.00    9.98
  11   2   7   51.81    9.08
  11  -2   7   64.69   10.17
 -11  -2  -7   43.49   10.36
 -11   2  -7   54.79   11.88
  11   2   7   74.95   10.15
  11  -2   7   53.02    9.08
 -11  -2  -8   84.45    9.05
 -11   2  -8   88.40    9.91
 -11  -2  -8   84.79   14.30
 -11   2  -8   50.43   12.66
 -11  -2  -8   89.14   12.71
  11   2   8   81.20   11.01
  11  -2   8   89.67   11.51
 -11  -2  -8   84.03   13.32
  11   2   8   85.25   11.20
  11  -2   8   89.74   11.19
 -11   2  -9   -3.52    5.92
 -11  -2  -9   -3.47    5.02
  11   2   9    1.56    5.45
  11  -2   9   -3.43    6.28
 -11  -2  -9    7.93   10.37
  11   2   9   -3.15    6.26
  11  -2   9    1.57    5.61
  11   2  10    1.61    5.76
  11  -2  10    8.92    6.06
  11   2  10    4.91    5.85
  11  -2  10   -1.63    5.38
  11   2  11   55.19    9.79
  11  -2  11   63.19   11.21
  11   2  11   46.05    9.52
  11  -2  11   71.10   11.37
  11   2  12   -3.48    5.43
  11  -2  12    5.82    6.76
  11   2  12   -1.79    5.90
  11  -2  12   12.38    8.93
  11   2  13    9.08    6.79
  11  -2  13    2.02    8.04
  11   2  13   -3.74    7.57
  11  -2  13    5.55    6.61
  11   2  14  244.17   19.97
  11  -2  14  215.20   20.22
  11   2  14  183.56   18.06
  11  -2  14  231.93   19.77
  11   2  15   -1.97    7.38
  11  -2  15    4.39    7.27
  11   2  15    6.11    7.27
  11  -2  15    2.02    6.48
  11   2  16  119.07   15.00
  11  -2  16  116.59   15.80
  11   2  16  123.05   15.64
  11  -2  16  123.99   15.93
  11   2  17  114.93   15.04
  11  -2  17   63.92   12.46
  11   2  17   99.26   14.59
  11  -2  17   76.55   12.88
  11   2  18   17.62    8.06
  11  -2  18   17.18    8.98
  11   2  18    4.57    7.97
  11  -2  18    9.06    7.71
  11   2  19    6.81    8.49
  11  -2  19    2.53    7.89
  11   2  19   -2.36    8.42
  11  -2  19   -2.34    7.96
 -11   3  21   46.31   15.57
  11   3 -21   57.29   14.61
  11  -3 -21   57.31   13.64
 -11   3  20   37.80   13.45
  11   3 -20   23.18   10.66
  11  -3 -20   46.52   12.87
 -11  -3  19   56.31   15.78
 -11   3  19   75.66   15.68
  11   3 -19   36.05   11.95
  11  -3 -19   33.42   11.18
 -11  -3  18   25.39   11.66
  11   3 -18   42.36   10.79
  11  -3 -18   21.28    9.57
 -11   3  17   17.85   11.37
 -11  -3  17   24.23   14.56
  11   3 -17   12.60    8.12
  11  -3 -17   15.21    8.63
 -11   3  16    5.63    9.04
 -11  -3  16   11.54   10.79
 -11   3  15   -5.31    9.49
 -11  -3  15   -2.74   10.03
 -11   3  14    3.46    6.32
 -11   3  14   -2.50    9.56
 -11  -3  14    5.17   10.48
 -11   3  14    8.54   10.87
 -11   3  13   66.66   10.62
 -11   3  13   51.40   12.12
 -11   3  13   61.16   12.35
 -11  -3  13   70.48   13.83
 -11   3  12  107.61   12.14
 -11   3  12  119.54   16.47
 -11   3  12  117.32   14.97
 -11  -3  12  116.20   15.98
 -11   3  11  101.18   11.42
 -11  -3  11   80.97   14.18
 -11   3  11   59.69   12.25
  11   3 -10  188.97   14.32
 -11  -3  10  189.38   19.62
 -11   3  10  219.03   20.25
  11   3 -10  222.98   16.54
  11  -3 -10  215.99   16.20
  11   3  -9    3.12    3.24
 -11   3   9   -2.10    6.74
 -11  -3   9   -2.03    8.22
 -11   3   9    2.00    8.12
  11   3  -9   -1.31    3.81
  11  -3  -9   -2.55    3.98
 -11  -3   9    1.82    6.94
 -11  -3   9   12.76    7.78
 -11  -3   8   38.77    8.93
 -11  -3   8   41.65    9.02
 -11   3   8   42.45    6.23
 -11   3   8   38.87   10.10
  11   3  -8   53.82    6.50
 -11   3   8   41.04    9.13
  11  -3  -8   39.47    6.26
 -11  -3   8   22.67    9.43
  11   3  -8   43.00    6.99
  11  -3  -8   44.13    6.67
  11   3  -8   35.65    6.66
  11  -3  -8   49.30    7.49
 -11  -3   7  105.64   12.37
 -11  -3   7  129.45   13.11
 -11   3   7  116.01   10.00
 -11   3   7  133.05   14.18
  11   3  -7  118.34    9.50
 -11  -3   7  120.06   13.78
 -11   3   7  120.16   13.76
  11  -3  -7  125.43   10.58
 -11   3   7  100.32   12.56
  11   3  -7  124.62   10.94
  11  -3  -7  131.81   11.18
 -11  -3   7  107.16   13.56
 -11   3   7  131.83   14.82
  11   3  -7  112.36   10.99
  11  -3  -7  121.92   11.14
 -11  -3   6  279.65   19.11
 -11  -3   6  305.06   19.97
 -11   3   6  293.04   20.83
 -11  -3   6  257.62   16.64
 -11   3   6  266.81   16.58
 -11  -3   6  240.60   19.89
 -11   3   6  315.49   21.48
  11  -3  -6  327.17   18.04
  11   3  -6  288.75   15.83
 -11   3   6  269.45   19.53
 -11  -3   6  276.61   21.40
 -11   3   6  329.65   22.49
  11   3  -6  282.31   18.14
  11  -3  -6  282.68   17.84
 -11  -3   5  485.91   27.51
 -11  -3   5  519.43   28.24
 -11  -3   5  567.59   26.92
 -11   3   5  572.44   26.99
 -11  -3   5  533.12   30.31
 -11   3   5  554.40   30.45
 -11   3   5  499.40   29.44
 -11   3   5  532.59   29.34
 -11  -3   5  578.11   32.02
 -11   3   5  502.21   30.39
  11   3  -5  534.32   27.43
  11  -3  -5  579.50   27.99
 -11  -3   4  547.66   27.83
 -11  -3   4  579.60   28.85
 -11  -3   4  554.09   27.69
 -11  -3   4  556.55   30.55
 -11   3   4  538.83   29.85
 -11   3   4  579.21   30.61
 -11  -3   4  596.97   33.14
 -11   3   4  533.32   29.21
 -11  -3   4  540.31   30.86
 -11   3   4  553.66   30.63
  11   3  -4  560.13   28.00
  11  -3  -4  588.45   28.30
 -11  -3   3  157.31   11.57
 -11  -3   3  140.59   11.37
 -11  -3   3  138.10   12.00
 -11   3   3  126.56   12.22
 -11  -3   3  146.70   14.31
 -11   3   3  150.30   12.99
  11   3  -3  132.65   11.21
  11  -3  -3  129.86   11.12
 -11  -3   3  146.91   13.65
 -11   3   3  153.94   13.50
 -11  -3   2   43.48    7.68
 -11   3   2   43.28    7.16
 -11  -3   2   47.17    6.60
 -11  -3   2   51.62    8.74
 -11   3   2   51.36    8.03
 -11  -3   2   64.38    8.52
 -11   3   2   51.79    7.87
 -11  -3   1  259.85   17.25
 -11  -3   1  216.13   14.64
 -11   3   1  288.31   17.61
 -11   3   1  261.79   17.24
 -11  -3   1  262.77   17.60
 -11   3   1  231.63   15.57
 -11  -3   1  249.11   17.13
 -11   3   1  263.84   17.23
 -11  -3   0    1.11    4.82
 -11   3   0    8.36    4.47
 -11  -3   0    5.16    3.42
 -11   3   0    4.10    3.49
 -11  -3   0    2.35    5.65
  11  -3   0   12.77    6.67
 -11  -3   0    3.31    2.96
 -11   3   0    4.66    3.63
 -11  -3   0    7.89    4.89
 -11   3   0   12.98    5.60
 -11   3   0    3.60    3.75
 -11  -3   0    6.04    3.77
 -11   3  -1   68.00    8.18
 -11  -3  -1   66.34    6.66
 -11  -3  -1   54.70    7.67
 -11   3  -1   53.45    8.40
 -11  -3  -1   73.96    7.92
 -11   3  -1   69.56    7.75
 -11  -3  -1   66.28    8.60
 -11   3  -1   67.21    8.13
 -11  -3  -1   54.04    8.85
  11  -3   1   72.19   10.95
 -11  -3  -2  263.64   18.32
 -11  -3  -2  278.66   17.67
 -11   3  -2  265.05   17.01
 -11  -3  -2  271.21   16.12
 -11   3  -2  249.01   16.00
 -11   3  -2  263.39   17.88
  11  -3   2  265.25   20.39
 -11  -3  -2  241.46   16.37
 -11  -3  -3   57.96    9.67
  11  -3   3   73.13   10.49
  11   3   3   90.23   11.78
 -11  -3  -3   73.92    7.83
 -11   3  -3   65.29    7.76
 -11  -3  -3   73.44    9.63
 -11   3  -3   72.03    9.09
 -11  -3  -3   73.05    9.07
 -11   3  -3   82.19   10.44
 -11  -3  -4   49.66   10.15
  11   3   4   60.63    9.87
  11  -3   4   62.96    9.89
 -11  -3  -4   42.71    8.54
 -11   3  -4   37.61    7.81
 -11  -3  -4   49.74    6.40
 -11   3  -4   45.72    6.99
 -11  -3  -4   45.12    8.44
 -11   3  -4   44.41    9.38
 -11  -3  -5    1.49    7.08
  11   3   5   -1.59    5.95
  11  -3   5   -3.28    5.72
 -11   3  -5   -1.61    7.20
 -11  -3  -5    2.60    5.72
 -11   3  -5   -4.13    7.43
 -11  -3  -5    2.84    6.63
 -11  -3  -6   35.86    8.81
  11  -3   6   21.32    6.98
 -11   3  -6   35.20   10.15
 -11  -3  -6   28.01    8.82
 -11   3  -6   48.27    9.40
 -11  -3  -6   48.68   10.23
  11   3   6   31.03    7.45
 -11  -3  -7   46.41   11.21
 -11   3  -7   54.94   10.79
  11   3   7   29.16    7.88
  11  -3   7   28.26    7.68
 -11  -3  -7   47.86   10.27
 -11  -3  -7   43.71    6.54
  11   3   8    1.43    5.59
 -11   3  -8   -5.34    5.94
 -11  -3  -8   -1.09    4.56
 -11  -3  -8   -5.67   10.20
 -11   3  -8   -5.50   11.33
  11   3   8    6.12    5.33
  11  -3   8   -3.41    5.48
  11   3   8   -3.05    6.29
  11  -3   8   -1.52    5.43
 -11  -3  -9    8.12    4.70
  11   3   9    3.08    5.09
  11  -3   9    3.52    5.98
  11   3   9    1.58    6.16
  11  -3   9    1.57    5.99
  11   3   9    8.89    6.84
  11   3  10   34.67    8.31
  11  -3  10   21.94    7.49
  11   3  10   44.24    9.19
  11  -3  10   17.85    7.35
  11   3  10   50.50    8.83
  11   3  11   84.20   11.56
  11  -3  11  117.84   14.24
  11   3  11  124.45   13.35
  11  -3  11  100.99   12.60
  11   3  11  121.37   13.08
  11   3  12  110.69   12.92
  11  -3  12   65.41   11.46
  11   3  12  110.35   13.09
  11  -3  12   92.97   12.24
  11   3  12   77.72   10.94
  11   3  13   45.33    9.60
  11   3  13   44.67   10.01
  11  -3  13   65.97   12.75
  11   3  13   46.47    8.97
  11   3  14   61.64   10.64
  11  -3  14   62.42   11.73
  11   3  14   52.45   11.16
  11  -3  14   76.48   12.05
  11   3  14   78.09   11.31
  11  -3  15   51.54   12.14
  11   3  15   18.23    8.25
  11  -3  15   31.91   10.47
  11   3  15   20.79    7.81
  11  -3  16   23.24    9.41
  11   3  16   -4.22    8.38
  11  -3  16   -2.08    7.42
  11   3  16    1.76    6.58
  11  -3  17   33.76   10.67
  11   3  17   17.51    8.91
  11  -3  17   25.92    9.71
  11  -3  18   57.28   12.60
  11   3  18   74.71   13.13
  11  -3  18   49.25   11.63
  11   3  19   -7.00    8.91
  11  -3  19    2.32    8.47
  11   4 -21    5.83    8.80
  11  -4 -21   -5.86   10.71
 -11   4  20   17.12   13.35
  11   4 -20   19.61   10.71
  11  -4 -20   14.11    9.60
 -11   4  19    3.28    9.57
  11   4 -19    2.68    8.09
  11  -4 -19    8.12    8.44
 -11   4  18   31.31   11.47
  11   4 -18   17.90    9.17
 -11   4  17   20.80   10.12
 -11   4  16   20.39    8.43
 -11   4  16   16.92   10.79
 -11  -4  16   11.50   10.99
 -11   4  15   -1.97    6.86
 -11   4  15    5.34    8.58
 -11  -4  15    5.44    9.72
 -11   4  14   -1.90    5.93
 -11  -4  14    5.14    9.18
 -11   4  14   -2.52    6.81
 -11   4  14    5.79    9.57
 -11   4  13  189.79   17.71
 -11  -4  13  222.23   21.63
 -11   4  13  224.00   21.61
 -11   4  13  178.85   20.88
 -11   4  12   48.20    9.65
 -11  -4  12   38.43   11.51
 -11   4  12   38.96   11.54
 -11   4  12   38.36    9.90
 -11   4  11   34.22   10.63
 -11   4  11   15.65    6.40
  11   4 -10    1.34    4.31
  11  -4 -10   -3.92    5.58
 -11   4  10   -2.29    6.44
 -11   4   9   25.08    5.50
 -11   4   9   40.84    9.95
 -11   4   9   28.68   11.10
 -11   4   9   13.12    6.57
  11   4  -9   17.69    5.72
  11  -4  -9   31.88    6.25
  11   4  -9   22.68    5.91
  11  -4  -9   33.05    6.50
 -11   4   8   56.18    7.63
 -11   4   8   58.56   10.71
 -11  -4   8   46.08   11.25
 -11   4   8   62.28   12.09
 -11   4   8   34.19    8.32
  11  -4  -8   62.80    7.85
  11   4  -8   49.10    7.34
  11   4  -8   42.81    7.30
  11  -4  -8   60.97    8.04
 -11   4   7    8.12    4.35
 -11  -4   7    8.96    8.27
 -11   4   7    8.73    7.34
 -11   4   7   11.34    6.60
  11  -4  -7   15.60    4.36
 -11   4   7    7.34    5.85
 -11  -4   7   22.57    8.77
 -11   4   7   18.02    8.70
  11   4  -7   11.39    4.54
  11  -4  -7   13.51    4.81
 -11   4   6  409.17   26.40
 -11   4   6  393.88   22.51
 -11  -4   6  403.41   26.27
 -11   4   6  406.23   26.06
 -11   4   6  392.75   24.07
  11   4  -6  414.28   23.07
  11  -4  -6  416.59   22.88
 -11  -4   6  409.21   27.18
 -11   4   6  434.49   27.26
 -11   4   5  197.51   14.49
 -11   4   5  172.58   15.89
 -11   4   5  210.37   17.07
 -11  -4   5  205.20   17.24
 -11   4   5  196.92   15.39
  11   4  -5  189.11   13.97
  11  -4  -5  219.81   14.67
 -11  -4   5  202.88   17.54
 -11   4   5  242.45   18.30
 -11  -4   4   66.12    9.06
 -11   4   4   62.26    8.50
 -11  -4   4   49.97   10.14
 -11   4   4   60.12    8.89
 -11  -4   4   60.09    9.70
 -11   4   4   65.80    9.67
  11   4  -4   69.33    7.92
  11  -4  -4   77.46    8.28
 -11  -4   4   92.39   10.86
 -11   4   4   63.11    9.17
 -11  -4   3    4.60    5.67
 -11  -4   3    4.60    5.61
 -11   4   3    4.33    4.21
 -11   4   3    7.22    5.31
 -11  -4   3    3.06    4.13
 -11  -4   2   44.61    8.55
 -11  -4   2   69.16    9.57
 -11   4   2   42.09    7.41
 -11   4   2   63.93    8.35
 -11  -4   2   51.04    7.95
 -11   4   2   50.12    7.90
 -11  -4   1   89.09   10.00
 -11   4   1  106.02    9.96
 -11  -4   1   66.77   10.00
 -11  -4   1   85.97   10.02
 -11   4   1   92.89    9.87
 -11   4   1  101.10   10.49
 -11   4   1  105.19   10.39
 -11  -4   1   92.10   10.20
 -11  -4   0   68.82    8.19
 -11   4   0   78.81    8.21
 -11  -4   0   86.82    9.57
 -11   4   0   85.32    9.25
 -11  -4   0   79.20   10.57
  11  -4   0   80.03   11.67
 -11   4   0   69.96    8.83
 -11  -4   0   81.16    9.16
 -11   4   0  111.19   10.80
 -11  -4   0   73.12    8.88
 -11   4   0   84.98    9.26
 -11   4  -1   17.46    4.99
 -11  -4  -1   28.27    6.03
 -11   4  -1   17.85    5.91
 -11  -4  -1   16.34    4.33
 -11   4  -1   13.30    4.34
 -11  -4  -1   11.12    5.84
 -11   4  -1   15.78    5.65
  11  -4   1   14.78    7.08
 -11  -4  -1   30.48    8.66
 -11  -4  -2  148.37   14.28
 -11   4  -2  130.34   12.88
 -11  -4  -2  125.05   11.99
 -11   4  -2  139.37   11.98
 -11  -4  -2  134.62   10.76
 -11   4  -2  129.77   10.83
  11  -4   2  124.25   14.17
 -11   4  -3    5.85    6.93
 -11  -4  -3    6.16    5.60
 -11   4  -3    8.29    6.05
 -11  -4  -3    8.93    3.79
 -11   4  -3    2.10    2.96
 -11  -4  -3   -1.52    7.88
  11  -4   3    5.25    5.46
  11   4   4  142.85   12.89
 -11  -4  -4  150.74   15.67
  11  -4   4  148.22   14.67
  11   4   4  110.48   13.24
 -11   4  -4  154.76   15.10
 -11  -4  -4  139.99   11.23
 -11   4  -4  124.93   11.29
 -11  -4  -4  139.04   13.60
 -11   4  -4  115.99   12.38
  11   4   5   -2.78    6.22
 -11  -4  -5   -1.46    7.20
 -11   4  -5    2.82    7.04
  11   4   5    1.65    5.59
  11  -4   5   -5.07    6.58
 -11   4  -5   -6.87    8.57
 -11   4  -5    5.91    4.52
  11   4   6    3.24    6.92
 -11  -4  -6   14.47    8.22
 -11   4  -6    1.55    7.85
  11  -4   6   20.38    7.73
 -11   4  -6   11.22   10.00
  11   4   6    8.65    6.66
  11   4   7    6.30    6.38
 -11  -4  -7    8.88    9.79
 -11   4  -7   -3.42    9.80
  11  -4   7    5.15    5.83
  11   4   7    1.50    5.59
  11  -4   8  176.92   16.68
  11   4   8  154.08   14.94
 -11   4  -8  174.32   18.58
  11   4   8  204.54   16.64
  11   4   9  170.09   14.99
  11  -4   9  129.98   14.45
  11   4   9  140.55   14.14
  11  -4   9  119.11   13.28
  11   4   9  129.85   13.66
  11  -4  10   -1.87    6.36
  11   4  10   16.39    7.34
  11  -4  10    8.09    6.44
  11   4  10   11.58    6.58
  11  -4  11    1.94    5.66
  11   4  11   -3.40    6.75
  11  -4  11    3.35    6.39
  11   4  11   -1.70    6.37
  11  -4  12   48.45   10.42
  11   4  12   44.29    9.97
  11  -4  12   31.29    8.90
  11   4  12   48.98    9.66
  11  -4  13   50.45   10.74
  11   4  13   44.21    9.97
  11  -4  13   39.74    9.15
  11   4  13   50.21   10.20
  11  -4  14    2.19    7.23
  11   4  14  -15.38    8.86
  11  -4  14   -1.88    7.34
  11   4  14    1.83    7.28
  11  -4  15  163.69   18.53
  11   4  15  186.06   17.85
  11  -4  15  129.54   15.79
  11   4  15  149.39   16.00
  11  -4  16    2.36    7.13
  11   4  16    2.08    6.87
  11  -4  16   -2.04    7.12
  11   4  16    1.90    6.78
  11  -4  17   46.40   11.68
  11   4  17   34.45   10.32
  11  -4  17   44.52   10.69
  11   4  17   49.95   10.38
  11  -4  18    5.04    7.86
  11   4  18   -2.23    7.76
  11  -4  18   13.18    9.06
  11   4  19   18.34    9.97
  11  -4  19   15.87    9.03
 -11   5  20    3.40   11.84
 -11   5  19   16.33   10.20
 -11   5  18   27.86    9.45
 -11   5  18   24.94   10.63
 -11   5  17  104.25   14.66
 -11   5  17   68.33   14.40
 -11   5  16  255.04   22.00
 -11   5  16  252.09   24.79
 -11   5  15   36.21    9.90
 -11   5  15   34.94   10.96
 -11   5  14  111.76   14.07
 -11   5  14  102.04   16.31
 -11   5  14   94.26   16.79
 -11   5  13  212.84   19.57
 -11   5  13  254.47   23.06
 -11   5  13  230.14   23.40
 -11   5  12   19.57    8.55
 -11   5  12   45.16   11.75
 -11   5  11   52.62   12.02
 -11   5  10   96.71   14.52
  11   5 -10  119.67   12.04
  11  -5 -10  108.56   11.17
 -11   5  10  111.23   11.83
  11   5  -9   28.66    6.10
  11  -5  -9   31.85    6.53
 -11   5   9   23.36    6.14
 -11   5   9   31.15    9.55
 -11   5   8  191.58   15.45
 -11   5   8  215.00   19.50
  11   5  -8  206.68   15.36
  11  -5  -8  198.20   14.79
  11   5  -7   96.67    9.79
  11  -5  -7   94.23    9.66
 -11   5   7  112.73   11.19
 -11   5   6   48.25    7.74
 -11   5   6   53.44    9.58
 -11   5   6   45.80    8.28
  11   5  -6   42.96    6.76
  11  -5  -6   61.72    7.50
 -11  -5   6   60.02   10.60
 -11   5   6   45.15    9.32
 -11   5   5   14.78    5.16
 -11   5   5   17.31    6.63
 -11   5   5   13.80    6.13
  11   5  -5   18.97    4.95
  11  -5  -5   18.93    4.62
 -11  -5   5   28.89    8.22
 -11   5   5    5.22    5.10
  11   5  -4   46.61    6.76
  11  -5  -4   48.33    6.57
 -11   5   4   39.36    7.37
 -11   5   4   37.39    7.89
 -11  -5   4   53.94    9.17
 -11   5   4   67.58    9.94
 -11   5   4   62.00    8.75
 -11   5   3   50.49    8.63
 -11   5   3   69.59    8.87
 -11  -5   3   40.76    8.41
 -11   5   3   53.59    9.10
 -11   5   2  218.21   15.99
 -11   5   2  234.02   17.18
 -11  -5   2  225.47   17.58
 -11  -5   2  217.02   17.07
 -11   5   2  199.03   15.98
 -11   5   1   89.37   10.57
 -11  -5   1   94.15   12.46
 -11   5   1   89.04   10.49
 -11   5   1   85.52    9.86
 -11  -5   1  111.50   11.34
  11  -5   0  131.22   15.18
 -11   5   0  133.85   12.64
 -11   5   0  122.09   12.17
 -11  -5   0  155.09   15.25
 -11  -5   0  137.73   12.38
 -11   5   0  130.36   11.96
 -11  -5  -1  276.65   20.87
 -11   5  -1  244.45   17.72
  11  -5   1  276.25   21.64
 -11   5  -1  288.01   19.63
 -11  -5  -1  287.56   18.15
 -11   5  -1  272.52   17.66
  11  -5   2  374.71   24.58
  11   5   2  299.10   20.23
 -11  -5  -2  313.59   23.17
 -11   5  -2  321.76   21.72
  11  -5   3   14.54    7.77
  11   5   3   23.49    7.85
 -11   5  -3    3.15    7.67
  11  -5   4   28.64    8.87
  11   5   4   23.03    7.58
 -11   5  -4   23.81    8.93
  11  -5   5  139.78   15.01
 -11   5  -5  166.39   17.36
  11   5   5  148.35   14.26
  11  -5   6   80.93   11.67
  11   5   6   84.18   11.57
  11  -5   7   17.71    6.95
  11   5   7   27.47    7.70
  11  -5   8   34.25    8.48
  11   5   8   18.41    7.32
  11  -5   9    3.70    5.77
  11   5   9    1.73    5.72
  11  -5  10   47.67    9.80
  11   5  10   21.18    7.15
  11  -5  10   32.11    8.27
  11   5  10   28.63    8.32
  11  -5  11   -1.98    6.89
  11   5  11    1.69    7.11
  11   5  11    5.52    6.73
  11  -5  12  133.18   15.27
  11   5  12  140.17   15.16
  11   5  12  105.67   13.94
  11  -5  13    4.26    7.04
  11   5  13   -7.25    8.36
  11   5  13    3.86    6.90
  11  -5  14   24.34    9.15
  11   5  14   13.19    7.66
  11   5  14   21.69    8.58
  11  -5  15   22.96    9.66
  11   5  15   18.01    7.83
  11  -5  16   21.39    9.82
  11   5  16   12.19    8.09
  11  -5  17    2.46    7.67
  11   5  17   -4.11    7.34
  11   5  18    4.15    7.75
 -11   6  19   70.61   14.20
 -11   6  19  103.50   18.23
 -11   6  18   14.82    8.85
 -11   6  18   31.04   13.05
 -11   6  17   55.49   12.23
 -11   6  17   71.32   14.99
 -11   6  16    2.35    6.60
 -11   6  16    2.84    8.27
 -11   6  15    4.57    7.76
 -11   6  15   -5.41    8.94
 -11   6  14   37.88    9.90
 -11   6  14   33.50   10.89
 -11   6  14   33.00   13.08
 -11   6  13   54.55   13.39
 -11   6  13   31.98   10.34
 -11   6  12   38.26    9.74
 -11   6  12   32.63   11.67
 -11   6  11   61.76   13.09
 -11   6  11   78.51   10.73
 -11   6  10    9.74    7.59
 -11   6  10    1.58    4.77
 -11   6   9    2.30    5.95
 -11   6   9   -1.54    5.38
 -11   6   8    6.51    6.76
 -11   6   8    1.53    4.12
 -11   6   7   22.45    7.96
 -11   6   7    4.56    4.44
 -11   6   6   36.74    8.35
 -11   6   6   35.03    7.23
 -11   6   5    3.66    4.73
 -11   6   5    3.06    5.05
 -11   6   4   -5.17    5.54
 -11   6   4    4.62    4.80
 -11   6   3  144.97   14.02
 -11   6   2   -3.09    4.81
 -11   6   1   24.99    6.44
 -11  -6   0   -1.73   10.16
 -11   6   0   -1.43    4.97
  11  -6   1   33.29    8.60
 -11   6  -1   37.70    7.18
  11   6   1   44.92    8.53
  11  -6   2  126.14   14.37
 -11   6  -2  123.37   11.92
  11   6   2  125.21   12.57
  11  -6   3    3.79    6.11
  11   6   3   16.35    6.46
  11  -6   4   51.90   10.30
  11   6   4   58.86   10.00
  11  -6   5  214.41   19.37
  11   6   5  301.49   20.54
  11  -6   6   -1.82    5.85
  11   6   6    8.40    6.41
  11  -6   7    5.50    6.40
  11   6   7   24.42    7.34
  11  -6   8   27.90    8.52
  11   6   8   32.47    8.62
  11  -6   9   94.69   12.95
  11   6   9   57.88   10.80
  11  -6  10   15.55    7.12
  11   6  10    5.76    7.19
  11  -6  11   16.02    7.37
  11   6  11   39.49   10.13
  11  -6  12    6.22    7.58
  11  -6  13   -2.15    8.03
  11   6  13    2.07    7.20
  11  -6  14  175.61   18.59
  11   6  14  170.04   17.82
  11  -6  15   -2.30    7.17
  11   6  15    2.13    7.62
  11  -6  16   -2.38    8.09
  11   6  16   15.16    8.44
 -11   7  18  129.63   19.77
 -11   7  17    2.97    8.96
 -11   7  17   20.40   10.33
 -11   7  16    2.84    8.58
 -11   7  16    7.47    8.68
 -11   7  15   51.68   12.86
 -11   7  15   56.00   12.30
 -11   7  14    3.05   10.09
 -11   7  14    5.21    8.62
 -11   7  14    9.53    8.51
 -11   7  13    5.86    9.43
 -11   7  13    9.32    7.49
 -11   7  12  112.19   15.23
 -11   7  12  102.49   13.08
 -11   7  12   83.79   15.79
 -11   7  11    8.96    6.10
 -11   7  11   18.55   10.33
 -11   7  10   75.26   11.08
 -11   7  10   57.81   12.46
 -11   7   9  113.27   13.05
 -11   7   9  138.34   16.66
 -11   7   8    6.82    5.16
 -11   7   8   15.77    7.86
 -11   7   7   -1.70    4.58
 -11   7   7    2.13    5.76
 -11   7   6   13.61    5.80
 -11   7   6   18.14    7.22
 -11   7   5  117.42   13.10
 -11   7   5  117.10   13.75
 -11   7   4  164.67   15.29
 -11   7   4  140.07   15.08
 -11   7   3   48.33    8.88
 -11   7   3   20.68    6.53
 -11   7   2   37.93    7.83
  11   7  -1    1.32    5.04
 -11   7   1   -1.57    4.42
  11   7   0    4.17    4.96
 -11   7   0    7.56    5.14
  11   7   1  335.99   21.99
 -11   7  -1  329.62   21.43
  11   7   2   -1.52    5.82
 -11   7  -2    1.46    3.94
  11   7   3    1.59    5.81
 -11   7  -3   -1.48    3.99
  11   7   4   23.25    7.81
  11   7   5   60.54   10.57
  11   7   6   30.58    8.36
  11   7   7   66.97   11.47
  11   7   8   13.49    7.67
  11   7   9   -3.97    7.88
  11   7  10   73.37   12.47
  11   7  11   18.82    8.80
  11   7  12   36.35   10.08
  11   7  13   19.64    8.36
  11   7  14    8.89    8.13
 -11   8  15   -5.47    9.29
 -11   8  15    2.57    8.27
 -11   8  14    5.26    7.68
 -11   8  14    2.53    7.64
 -11   8  13    4.97    7.99
 -11   8  13    7.86    6.50
 -11   8  12   14.68    7.93
 -11   8  12   53.73   10.10
 -11   8  11   -4.84    7.77
 -11   8  11   -1.96    6.28
 -11   8  10    1.92    5.38
 -11   8   9  192.88   17.37
 -11   8   8   31.96    8.49
 -11   8   7  334.86   24.02
 -11   8   6   24.32    8.29
 -11   8   5  275.85   21.27
 -11   8   4   -1.89    5.88
 -11   8   3   26.54    8.01
 -11   8   2   71.04   10.52
 -11   8   2   55.20   10.08
 -11   8   1  221.69   18.07
 -11   8   0   12.78    5.59
  11   8   0   19.15    6.91
 -11   8  -1   26.46    6.68
  11   8   1   15.47    6.86
 -11   8  -2   15.29    5.63
  11   8   2   24.26    7.80
 -11   8  -3    1.51    3.91
  11   8   3   -1.69    6.32
 -11   8  -4   72.12    9.72
  11   8   4   47.62    9.75
  11   8   5    7.34    7.01
  11   8   6   47.64   10.42
  11   8   7  182.94   18.04
  11   8   8    2.03    7.09
  11   8   9   69.00   12.22
  11   8  10   -6.44    7.84
  11   8  11    2.20    7.46
  11   8  12   -4.49    8.20
 -11   9  13   -2.11    7.16
 -11   9  12    2.14    6.24
 -11   9  12    2.60    7.86
 -11   9  11   82.28   12.85
 -11   9  11   82.35   14.19
 -11   9  10    2.07    6.04
 -11   9   9  110.50   14.25
 -11   9   8    2.04    5.96
 -11   9   7    2.04    6.16
 -11   9   6    2.04    5.95
 -11   9   5   65.40   11.38
 -11   9   4    8.18    6.18
 -11   9   3   43.06    9.57
 -11   9   2  158.50   16.59
 -11   9   1    8.23    6.42
  11   9   2   42.72    8.86
  11   9   3    1.79    6.38
  11   9   4   14.89    7.83
  11   9   5   27.09    8.97
  11   9   6   -2.00    7.79
  11   9   7    6.20    7.21
  11   9   8   10.64    7.96
  11   9   9   -2.18    7.22
  11   9  10   65.15   13.07
 -11  10   9   13.26    7.32
 -11  10   8    2.19    5.41
 -11  10   7   13.12    7.04
 -11  10   6    4.39    5.68
 -11  10   5   -4.39    7.26
 -11  10   4   13.14    7.65
 -11  10   3   15.38    7.48
 -11  10   2   -2.19    6.16
 -11  10   1   10.96    6.63
 -11  10   0   28.45    8.59
  11  10   5  149.35   17.09
  11  10   6   24.99    9.91
  11  10   7   -2.15    7.50
  12   0 -21    3.04    9.48
 -12   0  21   -3.62   12.31
  12   0 -20    8.80    9.15
 -12   0  20   13.97   12.77
  12   0 -19    5.64    8.22
 -12   0  19   10.08   11.42
  12   0 -18   -2.70    8.68
 -12   0  18   16.11   13.05
 -12   0  17   -3.08   11.75
 -12   0  16  184.03   21.36
 -12   0  15    2.75    8.59
 -12   0  14  113.83   16.12
 -12   0  13  -16.90    8.21
 -12   0  13   10.66    8.31
 -12   0  12    6.76    7.86
 -12   0  12   12.61    9.63
 -12   0  11   10.48    8.18
 -12   0  11    9.47    8.46
  12   0 -10   19.77    5.14
 -12   0  10    9.72    6.98
 -12   0   9   12.27    8.73
 -12   0   9   -2.07    6.44
  12   0  -9   -1.17    3.52
  12   0  -9   -1.54    4.16
 -12   0   9    1.80    5.96
  12   0  -8   30.63    6.64
 -12   0   8   34.65    8.30
  12   0  -8   36.07    6.08
 -12   0   8   30.67    9.87
 -12   0   8   24.56    9.29
  12   0  -8   42.65    7.01
  12   0  -7   -2.76    5.16
 -12   0   7  -16.67    8.28
 -12   0   7   -1.78    5.19
  12   0  -7    3.08    3.39
 -12   0   7   -3.59    7.80
 -12   0   6  565.17   32.88
  12   0  -6  626.32   28.85
 -12   0   6  574.83   32.46
  12   0  -6  555.42   30.12
 -12   0   6  596.54   34.71
 -12   0   5   -5.50    8.80
 -12   0   5   -3.07    4.63
 -12   0   5   -3.14    6.36
  12   0  -5    1.25    3.50
 -12   0   5   -1.79    4.84
 -12   0   4  207.14   16.03
  12   0  -4  215.08   15.22
 -12   0   4  197.78   16.80
 -12   0   3   -1.51    5.89
 -12   0   3   -1.29    3.63
  12   0  -3   -1.19    3.82
 -12   0   3   -1.52    4.12
 -12   0   2  291.53   19.79
 -12   0   2  320.69   19.92
 -12   0   2  277.06   18.12
 -12   0   1   -4.48    3.90
 -12   0   1   -1.11    3.11
 -12   0   1   -1.29    4.94
 -12   0   1   -2.65    3.73
 -12   0   0  320.94   18.67
 -12   0   0  312.84   18.84
 -12   0   0  316.83   19.74
 -12   0   0  349.87   20.80
 -12   0  -1    1.04    2.81
  12   0   1   -1.89    6.42
 -12   0  -1    2.42    4.42
 -12   0  -1   -3.17    3.60
 -12   0  -1   -4.64    5.19
  12   0   2    9.29    6.48
 -12   0  -2    2.05    4.45
 -12   0  -2   11.04    5.33
 -12   0  -2    5.31    3.32
 -12   0  -2    9.41    5.19
  12   0   3    1.80    5.62
 -12   0  -3    1.07    5.08
 -12   0  -3    7.66    5.17
 -12   0  -3   -2.46    5.41
 -12   0  -3    1.09    2.55
  12   0   4   70.65   11.00
 -12   0  -4   91.74    9.97
 -12   0  -4   65.44   10.11
 -12   0  -4   67.99   10.24
 -12   0  -4   86.91    9.14
  12   0   5    1.72    5.85
 -12   0  -5   -1.18    5.72
 -12   0  -5   -1.47    7.08
 -12   0  -5   -2.82    6.50
  12   0   6  446.66   28.12
 -12   0  -6  519.44   29.07
 -12   0  -6  447.85   25.55
 -12   0  -6  452.54   27.42
  12   0   7   -1.71    6.12
 -12   0  -7    1.76    8.87
 -12   0  -7   -1.30    7.29
  12   0   8    6.91    7.00
 -12   0  -8   -1.36    7.44
  12   0   8   -4.90    6.10
  12   0   9   23.58    8.00
  12   0   9   10.57    7.16
  12   0  10    8.67    6.49
  12   0  10   14.47    7.20
  12   0  11    1.79    5.76
  12   0  11   -1.87    5.04
  12   0  12    9.29    6.15
  12   0  12    7.73    5.84
  12   0  13   -5.79    6.20
  12   0  13   -2.01    7.33
  12   0  14   22.05    8.14
  12   0  14   14.54    7.96
  12   0  15    2.08    8.89
  12   0  15   -2.15    6.92
  12   0  16  105.69   14.67
  12   0  16  111.55   14.83
  12   0  17   -6.70    8.53
  12   0  17    4.61    7.83
  12   0  18  110.74   15.60
  12   0  18  125.90   16.55
  12   0  19    2.44    9.13
  12   1 -21   12.14    9.50
  12  -1 -21   45.50   12.76
 -12  -1  21   25.37   14.97
 -12   1  21   21.76   13.58
  12   1 -20   11.69    9.14
  12  -1 -20   20.48    9.96
 -12  -1  20   35.01   13.38
 -12   1  20   17.52   12.83
  12   1 -19   36.54   11.06
  12  -1 -19   39.41   12.51
 -12  -1  19   67.31   16.45
 -12   1  19   47.16   14.70
  12   1 -18   56.57   12.87
 -12   1  18   74.16   15.91
 -12  -1  17    6.17   11.54
 -12   1  17   21.44   10.95
 -12   1  16   23.22    9.87
 -12  -1  16   -2.94   11.22
 -12   1  15   19.12    9.30
 -12  -1  15   16.65    9.93
 -12   1  14   38.51   10.65
 -12   1  14   51.46   13.23
 -12  -1  14   20.95    8.97
 -12  -1  13   66.34   12.71
 -12   1  13   48.93   12.69
 -12   1  13   55.39   11.44
 -12   1  12   30.78   10.25
 -12  -1  12   27.40    9.31
 -12   1  12   29.26    9.35
 -12  -1  12   39.42   10.57
 -12  -1  11   72.01   12.66
 -12   1  11   57.78   12.91
 -12   1  11   77.71   12.45
 -12  -1  11   46.44   11.80
 -12   1  10   47.33   10.90
  12   1 -10   32.64    6.23
 -12  -1  10   23.54    8.87
 -12  -1  10   60.63   12.23
 -12   1  10   33.39    9.01
  12   1  -9  194.47   14.10
  12  -1  -9  216.09   14.82
 -12  -1   9  193.84   19.52
 -12   1   9  197.64   18.98
  12   1  -9  210.91   15.66
  12  -1  -9  195.32   15.06
  12   1  -9  199.36   16.04
  12  -1  -9  129.98   13.74
 -12  -1   9  167.17   17.29
 -12  -1   9  157.33   16.28
 -12   1   9  215.46   19.04
 -12  -1   8  108.60   13.36
  12  -1  -8   89.72    9.38
 -12   1   8  104.43   13.23
  12   1  -8  103.13    9.51
 -12  -1   8   92.97   13.62
 -12   1   8   89.87   13.54
  12  -1  -8   96.19   10.31
  12   1  -8  106.22   10.93
 -12  -1   8  123.98   15.72
 -12   1   8  113.51   14.73
  12  -1  -8  112.83   11.21
  12   1  -8   93.59   10.73
 -12  -1   8   96.28   12.24
 -12  -1   7  314.03   23.60
 -12   1   7  346.91   24.12
  12   1  -7  343.06   19.18
  12  -1  -7  340.74   19.60
 -12  -1   7  339.05   22.36
 -12  -1   7  330.14   23.13
 -12   1   7  366.53   24.40
 -12  -1   7  358.06   25.68
 -12   1   7  356.71   25.52
  12   1  -7  308.58   20.70
  12  -1  -7  398.61   22.34
 -12   1   6   27.71    9.11
 -12  -1   6   37.42    8.82
 -12   1   6   46.86    9.16
  12   1  -6   48.39    7.29
  12  -1  -6   40.21    6.72
 -12  -1   6   48.91    9.64
 -12   1   6   32.76    8.88
 -12  -1   6   37.02    7.77
 -12   1   6   35.66    7.63
  12   1  -6   42.24    5.90
  12  -1  -6   58.50    6.90
 -12   1   5  589.37   32.92
 -12  -1   5  619.36   33.80
 -12   1   5  611.58   33.54
 -12  -1   5  626.09   33.03
 -12  -1   5  753.47   38.22
 -12   1   5  610.27   34.40
  12   1  -5  607.44   31.12
  12  -1  -5  639.72   31.36
 -12  -1   5  701.68   35.95
 -12   1   5  542.60   33.47
 -12   1   4  771.05   39.38
 -12  -1   4  798.11   38.07
 -12   1   4  781.67   38.41
  12   1  -4  733.38   36.33
  12  -1  -4  772.28   36.62
 -12  -1   4  797.25   40.20
 -12   1   4  722.41   38.93
 -12  -1   3  503.21   28.44
 -12   1   3  454.02   26.65
 -12  -1   3  456.94   25.04
 -12   1   3  464.44   25.71
  12   1  -3  468.29   24.87
  12  -1  -3  465.33   24.97
 -12  -1   3  407.77   25.92
 -12   1   3  451.78   26.65
 -12  -1   2  240.86   17.78
 -12   1   2  259.76   17.91
 -12  -1   2  222.45   16.99
 -12   1   2  198.15   16.31
 -12  -1   2  255.33   16.39
 -12   1   2  257.52   16.80
 -12  -1   1   73.14    8.47
 -12   1   1   79.62    8.72
 -12  -1   1   77.36    8.24
 -12   1   1   82.17    8.88
 -12  -1   1   69.55    9.70
 -12   1   1   93.75   10.33
 -12  -1   1   61.30    8.54
 -12   1   1   83.70    9.64
 -12  -1   0   70.35    8.50
 -12  -1   0   56.75    7.10
 -12   1   0   70.96    8.09
 -12  -1   0   83.56    9.63
 -12   1   0   81.24    9.60
 -12   1   0   87.82    8.79
 -12  -1   0   86.64    9.95
 -12   1   0   70.58    9.06
 -12  -1   0   67.15    8.15
 -12  -1  -1   27.96    5.99
 -12  -1  -1   33.11    5.49
 -12   1  -1   18.87    5.04
  12  -1   1   20.95    7.76
 -12  -1  -1   22.68    6.50
 -12   1  -1   33.15    7.02
 -12  -1  -1   21.07    4.80
 -12   1  -1   24.52    5.33
 -12  -1  -1   28.14    6.71
 -12   1  -1   20.67    6.19
  12  -1   2  130.00   14.32
 -12   1  -2  143.58   12.66
 -12  -1  -2  139.22   12.31
  12   1   2  107.44   13.77
 -12  -1  -2  129.91   11.59
 -12  -1  -2  124.85   11.75
 -12  -1  -2  117.79   10.36
 -12   1  -2  125.67   10.77
 -12   1  -2   99.33   10.94
  12   1   3  635.61   34.48
  12  -1   3  587.73   34.07
 -12   1  -3  551.37   30.49
 -12  -1  -3  596.00   30.51
 -12  -1  -3  616.06   30.42
 -12  -1  -3  585.56   30.50
 -12   1  -3  575.51   30.30
 -12  -1  -3  608.69   29.40
 -12   1  -3  606.87   29.64
  12   1   4  224.81   18.73
  12  -1   4  220.92   18.70
 -12   1  -4  244.06   15.49
 -12  -1  -4  208.67   15.94
 -12  -1  -4  208.54   16.31
 -12   1  -4  201.12   16.92
 -12  -1  -4  231.09   16.86
 -12   1  -4  211.32   16.38
 -12  -1  -4  212.06   15.14
 -12   1  -4  244.18   16.23
 -12  -1  -5  455.88   22.19
 -12   1  -5  458.19   24.02
 -12  -1  -5  460.21   25.32
  12   1   5  394.59   26.34
  12  -1   5  453.07   27.66
 -12  -1  -5  418.86   25.59
 -12   1  -5  405.83   26.22
 -12  -1  -5  395.51   25.38
 -12   1  -5  446.23   26.12
 -12   1  -6   -3.44    5.85
 -12  -1  -6    2.67    5.98
 -12  -1  -6   -4.67    7.87
 -12   1  -6    4.62    8.23
  12   1   6   -3.41    7.51
 -12  -1  -6   -7.80    7.97
  12  -1   6   10.36    6.99
 -12   1  -6   -3.33    7.89
 -12  -1  -6    4.66    3.98
  12   1   7  216.72   17.70
  12  -1   7  180.86   16.95
 -12  -1  -7  210.60   18.65
 -12   1  -7  196.30   15.43
 -12  -1  -7  205.48   16.96
 -12  -1  -7  210.08   14.11
 -12   1  -8   78.77   10.54
 -12  -1  -8  110.70   10.34
  12   1   8   97.43   12.72
  12  -1   8  121.22   13.75
  12   1   8   84.86   11.36
  12  -1   8   84.94   11.37
  12  -1   9  258.33   20.00
  12   1   9  235.07   19.19
 -12  -1  -9  274.14   17.43
 -12   1  -9  205.69   17.19
  12   1   9  254.59   19.74
  12  -1   9  274.51   20.16
  12  -1  10  195.83   17.79
  12  -1  10  199.42   18.45
  12   1  11   -1.80    6.72
  12  -1  11    1.79    6.85
  12   1  11    1.83    6.69
  12  -1  11    5.72    6.48
  12   1  12   13.03    7.55
  12  -1  12    9.27    7.66
  12   1  12   13.23    7.08
  12  -1  12   13.84    7.40
  12   1  13    5.80    7.06
  12  -1  13    1.92    6.36
  12   1  13    5.88    6.48
  12  -1  13    6.14    7.49
  12   1  14   18.07    8.02
  12  -1  14   27.98    8.85
  12   1  14   18.28    8.41
  12  -1  14   31.85    9.40
  12  -1  15   83.00   12.80
  12   1  15   58.38   11.45
  12   1  15   37.85   10.82
  12  -1  15   68.24   12.43
  12   1  16    2.16    9.08
  12  -1  16    6.46    8.05
  12   1  16    2.18    6.99
  12  -1  16    4.56    6.88
  12  -1  17    2.23    8.14
  12   1  17   -6.71    9.06
  12   1  17    2.25    8.04
  12  -1  17    7.06    7.33
  12   1  18   46.23   11.11
  12  -1  18   69.02   13.30
  12   1  18   74.15   13.15
  12  -1  18   33.99   10.18
  12   1  19  147.62   18.44
  12  -1  19  187.08   20.10
 -12  -2  21   14.46   12.29
 -12  -2  20   10.48   12.18
 -12   2  20   -7.03   13.14
  12   2 -20   -5.80    8.75
  12  -2 -20    2.90    8.47
 -12  -2  19    6.73   11.44
 -12   2  19    3.37   10.84
  12   2 -19   -2.79    9.46
 -12  -2  18   19.39   11.55
 -12   2  18    6.45    9.06
 -12   2  17   33.63   11.70
 -12  -2  17   15.44   10.24
 -12   2  16   43.43   12.67
 -12  -2  16   49.97   13.26
 -12   2  15   19.12   10.66
 -12  -2  15   13.97   10.68
 -12   2  14   -5.15    8.03
 -12  -2  14   -7.93   10.50
 -12   2  14   -2.91    8.77
 -12   2  13   70.18   12.68
 -12   2  13   63.57   13.61
 -12  -2  13   47.30   12.14
 -12   2  12  255.67   23.71
 -12  -2  12  209.93   20.83
 -12   2  12  261.21   22.21
 -12   2  11   49.07   10.36
 -12  -2  11   45.16   11.23
 -12  -2  11   41.20   11.05
 -12   2  11   36.71   10.38
  12   2 -11   41.38    7.20
 -12  -2  10   32.08    9.80
 -12  -2  10   23.32    9.39
  12   2 -10   23.52    5.57
 -12   2  10   27.62    9.36
 -12  -2   9  115.87   14.31
 -12  -2   9  123.95   15.45
  12   2  -9  122.04   11.90
  12  -2  -9  166.42   13.31
  12   2  -9  138.31   13.22
  12  -2  -9  116.11   12.12
 -12   2   9  129.35   15.22
  12   2  -9  115.81   10.65
 -12  -2   9  127.33   15.82
 -12   2   9  133.01   16.17
 -12  -2   8   16.85    7.44
 -12  -2   8    1.82    6.52
  12   2  -8   13.20    4.34
 -12   2   8   12.06    6.46
  12  -2  -8    9.14    3.68
 -12  -2   8    7.85    7.80
 -12   2   8   -3.83    7.00
 -12  -2   8   22.85   10.08
 -12   2   8    6.69    7.58
  12   2  -8    6.45    4.15
  12  -2  -8    3.79    3.42
  12   2  -8    5.82    4.25
  12  -2  -8    5.70    3.86
 -12  -2   7   15.38    6.81
 -12   2   7   12.70    7.10
 -12  -2   7   38.87    8.66
 -12  -2   7    9.21    6.76
 -12   2   7   26.87    7.80
  12   2  -7   25.43    5.07
 -12   2   7    9.37    5.88
  12  -2  -7   23.06    5.18
 -12  -2   7    6.41    6.48
 -12   2   7   24.94    8.44
  12   2  -7   16.53    5.30
  12  -2  -7   21.65    4.99
 -12  -2   6  124.57   12.61
 -12  -2   6   92.09   11.39
 -12   2   6  112.05   13.32
 -12   2   6  102.27   13.03
 -12   2   6  124.22   13.27
 -12  -2   6  132.91   14.11
  12   2  -6  116.69    9.44
 -12  -2   6  105.41   13.67
 -12   2   6  108.25   13.66
  12   2  -6  128.93   11.65
  12  -2  -6  121.92   11.10
 -12  -2   5    3.80    4.84
 -12  -2   5    4.33    4.64
 -12   2   5    4.88    4.75
 -12   2   5    7.91    6.04
 -12  -2   5    2.01    7.19
 -12  -2   5    1.85    4.55
 -12   2   5    3.58    4.63
 -12  -2   5    3.23    5.91
 -12   2   5    4.70    6.35
  12   2  -5    4.99    4.01
  12  -2  -5    9.87    3.73
 -12  -2   4  700.27   34.35
 -12  -2   4  636.11   31.35
 -12   2   4  626.19   34.19
 -12  -2   4  713.89   37.99
 -12   2   4  661.77   34.87
  12   2  -4  702.01   33.38
  12  -2  -4  711.21   33.35
 -12  -2   4  670.06   36.16
 -12   2   4  700.56   36.20
 -12  -2   3   16.45    5.64
 -12   2   3    4.17    3.80
 -12  -2   3   34.14    6.47
 -12   2   3   21.96    6.79
 -12  -2   3   14.72    6.65
  12   2  -3   16.64    4.85
  12  -2  -3   22.67    5.53
 -12  -2   3   23.55    6.27
 -12   2   3   19.93    6.00
 -12  -2   2   41.54    7.01
 -12   2   2   29.83    6.19
 -12  -2   2   29.17    5.74
 -12  -2   2   39.31    8.04
 -12   2   2   33.79    7.27
 -12  -2   2   37.79    6.91
 -12   2   2   45.47    7.61
 -12  -2   1   15.98    4.84
 -12   2   1   16.97    5.04
 -12  -2   1   28.70    6.59
 -12  -2   1   16.52    4.24
 -12   2   1   30.61    5.85
 -12  -2   1   34.49    7.27
 -12   2   1   28.69    6.63
 -12  -2   1   23.02    5.82
 -12   2   1    9.40    4.50
 -12  -2   0    2.39    5.43
 -12   2   0   -1.14    5.48
 -12  -2   0    1.10    4.18
 -12   2   0    3.29    3.91
 -12  -2   0    8.01    5.57
 -12  -2   0    2.86    2.97
 -12   2   0    4.72    3.56
  12  -2   0    5.84    6.25
 -12  -2   0   -1.23    4.87
 -12   2   0    8.66    5.45
 -12   2   0    2.61    3.94
 -12  -2   0   -2.60    4.75
 -12  -2  -1  143.74   12.61
  12  -2   1  148.86   15.72
 -12   2  -1  151.96   13.12
 -12  -2  -1  173.54   11.85
 -12   2  -1  160.00   12.68
 -12  -2  -1  157.67   13.43
 -12  -2  -1  149.69   11.87
 -12   2  -1  156.78   12.10
 -12  -2  -1  147.91   12.86
 -12   2  -1  152.34   12.69
 -12  -2  -2    1.24    6.17
 -12  -2  -2   -2.36    4.50
 -12   2  -2    6.51    5.47
 -12  -2  -2   -2.41    6.78
 -12   2  -2   -1.17    5.53
 -12  -2  -2    1.05    3.17
 -12   2  -2   -2.18    3.50
  12  -2   2    5.70    6.28
  12   2   2    1.85    5.57
 -12  -2  -3    5.14    6.18
 -12  -2  -3   23.09    6.36
 -12   2  -3    8.26    6.35
 -12  -2  -3    5.05    5.74
 -12   2  -3   13.49    5.66
 -12  -2  -3    4.26    3.22
 -12   2  -3    3.37    3.28
  12   2   3   -1.83    6.38
  12  -2   3   -5.53    6.89
 -12  -2  -4  366.55   22.64
  12   2   4  341.43   24.16
  12  -2   4  329.12   23.68
 -12  -2  -4  354.80   22.15
 -12   2  -4  329.23   21.35
 -12  -2  -4  338.51   20.14
 -12   2  -4  360.69   21.02
 -12  -2  -4  392.50   22.81
 -12   2  -4  388.06   23.78
 -12  -2  -5   46.41    9.67
  12  -2   5   32.11    8.59
  12   2   5   41.91    9.35
 -12  -2  -5   47.55    8.85
 -12   2  -5   52.83   10.55
 -12  -2  -5   42.13    8.97
 -12   2  -5   44.16    9.41
  12   2   6  160.06   15.52
  12  -2   6  175.08   16.42
 -12  -2  -6  144.24   14.92
 -12   2  -6  121.24   14.32
 -12   2  -6  154.55   12.87
 -12  -2  -6  164.78   15.34
 -12  -2  -6  201.86   16.66
  12   2   7  383.62   26.02
  12  -2   7  422.76   27.00
 -12  -2  -7  390.62   26.71
 -12   2  -7  476.98   24.39
  12   2   8   11.89    6.75
  12  -2   8    7.20    7.15
 -12  -2  -8   -3.71    8.44
 -12   2  -8   11.94    6.11
 -12  -2  -8    6.64    4.57
 -12   2  -9   46.30    8.46
 -12  -2  -9   38.97    7.04
  12   2   9   53.28    9.77
  12  -2   9   64.23   10.61
  12   2   9   47.27    9.23
  12  -2   9   20.20    7.33
  12  -2  10  205.83   18.31
  12   2  10  200.53   17.51
  12   2  10  198.78   17.51
  12  -2  10  218.51   18.25
  12   2  11    1.79    6.25
  12  -2  11   -1.95    7.29
  12   2  11   -1.80    5.61
  12  -2  11   -5.36    7.24
  12   2  12  248.83   20.31
  12  -2  12  312.96   23.51
  12   2  12  222.22   19.84
  12  -2  12  290.62   22.10
  12   2  13   22.88    8.84
  12  -2  13   45.99   11.09
  12   2  13   13.56    7.61
  12  -2  13   38.37    9.96
  12   2  14   82.82   12.78
  12  -2  14   84.47   13.56
  12   2  14   82.36   13.10
  12  -2  14  115.39   14.39
  12  -2  15   76.31   12.63
  12   2  15   52.16   11.66
  12  -2  15   66.09   12.72
  12   2  16   -2.11    7.17
  12  -2  16    6.97    7.69
  12   2  16    2.16    7.35
  12  -2  16   17.14    8.68
  12   2  17    4.36    7.00
  12  -2  17    7.19    7.48
  12   2  17   -8.94    9.55
  12  -2  17   -6.65    8.28
  12   2  18   -2.24    7.62
  12  -2  18   -2.47    7.21
  12   2  18    2.31    7.84
  12  -2  18    6.87    7.78
 -12  -3  20   20.94   13.61
 -12   3  20    3.51   10.25
 -12  -3  19   10.08   12.83
 -12   3  19   10.12   11.77
 -12   3  18    6.45    9.06
 -12  -3  18   -6.44   10.65
 -12   3  17   -6.12    9.23
 -12  -3  17   -3.08   10.48
 -12   3  16   58.01   13.82
 -12  -3  16   26.51   12.86
 -12   3  15    2.75    8.57
 -12  -3  15   13.97   11.53
 -12   3  14   70.85   14.77
 -12   3  14   75.25   13.50
 -12  -3  14   68.88   14.67
 -12   3  13    7.34    8.09
 -12  -3  13   -2.50   10.11
 -12   3  13   -5.61    9.02
 -12   3  13   -1.71    6.37
 -12   3  12    5.30    8.53
 -12   3  12   27.73    9.19
 -12  -3  12    7.03    8.96
 -12   3  12   13.22    6.45
 -12   3  11   14.95    7.79
 -12  -3  11   17.54   10.27
 -12   3  11   19.31    6.66
 -12   3  10   54.02   11.19
  12  -3 -10   29.62    6.97
 -12  -3  10   40.98   10.29
 -12  -3  10   18.35    8.48
 -12   3   9   41.90    9.69
 -12  -3   9   44.49   11.54
 -12   3   9   53.82   11.63
 -12  -3   9   47.98   10.37
 -12  -3   9   48.83   10.26
  12   3  -9   36.36    7.25
  12  -3  -9   45.71    7.69
 -12  -3   8  287.83   21.92
 -12  -3   8  245.08   20.66
 -12   3   8  287.68   22.94
 -12   3   8  328.85   23.02
 -12  -3   8  252.54   22.49
 -12   3   8  266.65   22.19
  12   3  -8  291.65   19.02
  12  -3  -8  314.25   19.28
 -12  -3   8  331.18   25.60
 -12   3   8  328.90   24.95
  12   3  -8  272.84   19.37
  12  -3  -8  328.06   20.17
 -12  -3   7   48.58    9.28
 -12   3   7   32.51    9.18
 -12  -3   7   47.52    9.36
 -12   3   7   27.10    7.91
 -12  -3   7   46.70   10.65
 -12   3   7   18.30    9.04
 -12  -3   7   30.34    9.31
 -12   3   7   20.97    8.40
  12   3  -7   23.18    5.62
  12  -3  -7   26.55    5.85
 -12  -3   6  212.55   16.73
 -12   3   6  166.89   15.97
 -12  -3   6  169.18   13.27
 -12   3   6  194.61   13.54
 -12  -3   6  142.28   15.84
 -12   3   6  187.38   16.94
 -12   3   6  177.69   15.92
 -12  -3   6  222.98   19.25
 -12   3   6  177.41   17.38
  12   3  -6  193.77   14.47
  12  -3  -6  186.97   14.25
 -12   3   5   11.16    4.35
 -12  -3   5   14.81    5.72
 -12  -3   5    8.32    5.73
 -12   3   5   13.53    5.76
 -12   3   5   11.63    5.90
 -12  -3   5   22.30    8.95
 -12   3   5   16.28    6.31
 -12  -3   5    9.43    5.71
 -12  -3   5   13.17    6.68
 -12   3   5    7.90    5.92
  12   3  -5    6.19    3.88
  12  -3  -5    8.60    3.85
 -12  -3   4   -1.10    4.84
 -12  -3   4    8.93    4.45
 -12   3   4   -3.15    4.43
 -12   3   4   -5.53    5.70
 -12  -3   4    1.84    6.23
 -12  -3   4    3.49    4.71
 -12   3   4   -1.68    4.71
 -12  -3   4   -1.54    6.36
  12   3  -4    1.20    3.51
  12  -3  -4    1.20    3.38
 -12  -3   3  170.22   13.35
 -12  -3   3  155.74   13.12
 -12   3   3  164.76   14.27
 -12  -3   3  170.50   15.74
 -12   3   3  172.16   14.35
  12   3  -3  178.06   13.24
 -12  -3   3  166.22   15.01
 -12   3   3  156.78   14.17
 -12  -3   2  111.85   12.23
 -12   3   2  126.56   11.98
 -12  -3   2  114.00   10.40
 -12   3   2   88.93   10.35
 -12  -3   2  128.43   11.90
 -12  -3   2  116.38   11.93
 -12   3   2  101.50   11.12
 -12   3   1  246.93   16.87
 -12  -3   1  245.07   17.31
 -12  -3   1  208.01   14.62
 -12   3   1  231.00   16.34
 -12  -3   1  230.73   16.70
 -12  -3   1  238.00   17.10
 -12   3   1  246.58   17.09
 -12  -3   0   14.50    4.52
 -12   3   0    6.67    4.07
 -12  -3   0   10.76    5.90
 -12   3   0    2.25    5.54
 -12  -3   0    5.04    5.81
 -12  -3   0    2.78    3.47
 -12   3   0    3.78    3.93
  12  -3   0    3.97    6.93
 -12  -3   0   14.53    5.43
 -12   3   0    8.82    5.47
 -12  -3   0    2.64    4.49
 -12   3   0    5.28    4.12
 -12  -3  -1  107.21   11.72
  12  -3   1   77.05   12.09
 -12   3  -1   78.30    8.96
 -12  -3  -1   88.78    8.16
 -12  -3  -1   76.64    9.17
 -12   3  -1   87.03   10.10
 -12   3  -1   93.45    9.30
 -12  -3  -1   76.74    8.60
 -12  -3  -1   84.56    9.96
 -12   3  -1   78.99    9.52
 -12   3  -2  164.75   14.16
 -12  -3  -2  106.33   12.49
  12  -3   2  136.59   14.89
 -12  -3  -2  150.58   12.56
 -12  -3  -2  121.87    9.77
 -12  -3  -2  140.97   12.63
 -12   3  -2  119.45   11.83
 -12  -3  -2  125.17   10.89
 -12   3  -2  151.58   11.85
 -12  -3  -3   23.92    6.46
 -12   3  -3   33.47    9.19
 -12  -3  -3   24.46    5.06
 -12   3  -3   25.00    5.18
 -12  -3  -3   21.94    7.38
 -12   3  -3   42.24    8.38
 -12  -3  -3   39.96    9.02
  12   3   3   20.24    7.91
  12  -3   3   32.10    8.38
 -12  -3  -4    6.38    6.05
 -12   3  -4    6.26    7.32
 -12  -3  -4    2.76    6.36
 -12   3  -4    7.99    6.15
 -12  -3  -4    3.26    3.18
 -12   3  -4    2.38    3.72
  12   3   4    9.13    6.97
 -12  -3  -4   20.85    8.69
  12  -3   4    7.42    6.30
 -12   3  -5    3.38    7.68
 -12  -3  -5    5.53    6.73
 -12   3  -5   18.85    7.91
 -12  -3  -5    5.67    3.96
 -12   3  -5   12.72    5.25
 -12  -3  -5    5.99    7.10
  12  -3   5   16.47    7.28
  12   3   5    3.55    6.79
  12   3   6   52.40   10.23
  12  -3   6   47.16   10.23
 -12  -3  -6   49.96   10.08
 -12  -3  -6   52.19   11.20
 -12   3  -6   36.38    9.53
  12   3   7  280.77   20.63
  12  -3   7  253.77   20.34
 -12   3  -7  219.20   15.94
  12   3   8  134.95   14.59
  12  -3   8  156.62   15.66
 -12   3  -8  151.80   13.06
  12  -3   9  191.63   17.29
  12   3   9  163.45   15.70
  12   3   9  168.99   15.93
  12  -3   9  159.74   15.59
  12  -3  10  224.12   20.14
  12   3  10  201.38   18.26
  12   3  10  279.88   20.59
  12  -3  10  284.40   20.57
  12   3  11   17.55    7.98
  12  -3  11    3.99    7.61
  12   3  11    9.05    7.60
  12  -3  11   -3.58    7.51
  12  -3  12   22.68    8.55
  12   3  12   29.90    9.25
  12  -3  12   11.06    7.65
  12   3  13   -3.69    7.61
  12  -3  13    6.40    9.40
  12   3  13   -5.81    8.41
  12  -3  13    7.64    8.42
  12  -3  14  194.34   19.96
  12   3  14  196.73   19.17
  12  -3  14  227.29   20.07
  12  -3  15   18.30    9.12
  12   3  15   20.80    8.90
  12  -3  15   18.43    8.77
  12  -3  16   85.07   13.62
  12   3  16   56.01   11.27
  12  -3  16   72.17   12.28
  12  -3  17    9.76    9.12
  12   3  17    2.23    7.95
  12  -3  17    4.39    7.66
  12  -3  18    2.51    7.83
  12   3  18   -4.59    8.39
  12  -3  18   -4.53    9.51
 -12   4  20    3.51   10.95
 -12   4  19    6.73   10.82
 -12   4  18    3.22    9.39
 -12   4  17   21.44   10.70
 -12   4  16  119.47   17.94
 -12   4  15   -2.00    6.79
 -12   4  15    5.53    8.62
 -12   4  14   15.53    7.45
 -12   4  14   23.99   10.98
 -12   4  14   23.58    9.60
 -12   4  13   52.80    9.90
 -12   4  13   49.69   12.22
 -12   4  13   45.69   12.90
 -12   4  12    9.18    6.88
 -12   4  12   18.85    9.40
 -12   4  11  234.34   21.84
 -12   4  10   38.52   10.32
  12   4 -10   20.18    6.12
  12  -4 -10   30.34    6.75
 -12   4   9    9.06    7.08
 -12  -4   9   25.81   10.21
 -12   4   9   27.38   10.77
  12   4  -9    7.39    4.78
  12  -4  -9   20.10    5.50
 -12   4   8    1.63    5.81
  12   4  -8   -1.41    3.46
  12  -4  -8   -2.73    3.52
 -12   4   8   -2.13    6.86
 -12  -4   8    4.03    7.70
 -12   4   8    1.96    7.17
 -12   4   7    1.19    3.70
 -12   4   7    6.01    6.24
 -12  -4   7    1.90    8.75
 -12   4   7  -12.81    9.02
 -12   4   7    1.53    6.09
  12   4  -7   -1.33    4.15
  12  -4  -7   -1.30    3.65
 -12  -4   7   -4.39    7.66
 -12   4   7    2.12    7.58
 -12   4   6  135.55   11.74
 -12   4   6   97.85   12.88
 -12   4   6  111.15   13.84
 -12  -4   6  137.20   15.09
 -12   4   6  110.76   12.48
  12   4  -6  109.41   10.86
  12  -4  -6  152.27   12.13
 -12  -4   6  129.65   15.37
 -12   4   6   98.82   13.55
 -12   4   5  315.50   19.07
 -12   4   5  292.45   21.53
 -12  -4   5  291.45   21.73
 -12   4   5  273.34   20.55
 -12  -4   5  333.21   24.49
 -12   4   5  268.16   19.34
  12   4  -5  294.22   18.64
  12  -4  -5  288.00   18.46
 -12  -4   5  330.91   23.31
 -12   4   5  304.69   22.04
 -12  -4   4  183.70   14.34
 -12   4   4  169.84   15.20
 -12  -4   4  162.00   15.50
 -12   4   4  154.21   14.72
 -12  -4   4  206.78   18.15
 -12   4   4  172.06   14.31
  12   4  -4  156.70   12.84
  12  -4  -4  154.86   12.81
 -12   4   4  129.68   13.99
 -12  -4   4  179.30   16.17
 -12  -4   3  224.19   17.95
 -12   4   3  181.69   14.90
 -12   4   3  168.51   15.08
 -12  -4   3  206.95   15.53
 -12  -4   3  200.79   16.79
 -12   4   3  175.38   15.69
 -12  -4   2    2.58    6.68
 -12  -4   2   -1.43    5.22
 -12   4   2   -1.46    5.32
 -12   4   2    2.51    4.89
 -12  -4   2   -3.09    6.03
 -12   4   2   -4.44    6.00
 -12  -4   1  101.90   10.80
 -12   4   1   88.61    9.71
 -12   4   1   92.78   10.40
 -12  -4   1  122.23   12.80
 -12  -4   1   79.47   10.35
 -12   4   1   82.37   10.38
 -12  -4   1   71.84    9.66
 -12   4   1   75.01    9.68
 -12  -4   0  257.62   19.26
  12  -4   0  228.52   20.74
 -12   4   0  287.52   18.91
 -12   4   0  263.05   18.36
 -12  -4   0  261.92   17.38
 -12   4   0  283.72   17.83
 -12  -4   0  293.74   18.60
 -12   4   0  298.19   18.25
 -12  -4   0  275.63   18.55
 -12   4   0  284.56   18.77
 -12   4  -1    1.13    5.22
 -12   4  -1    1.11    4.58
 -12  -4  -1    4.80    5.61
 -12   4  -1   -1.34    4.68
 -12  -4  -1   -4.38    7.11
  12  -4   1   -4.06    7.76
 -12   4  -1    1.36    5.29
 -12  -4  -1   -5.25    5.01
 -12  -4  -2  161.12   15.64
 -12   4  -2  144.28   14.44
 -12  -4  -2  189.50   14.64
 -12   4  -2  185.20   14.48
 -12  -4  -2  164.67   12.59
 -12   4  -2  171.44   13.17
  12  -4   2  147.29   16.28
 -12   4  -3  156.31   15.39
 -12  -4  -3  134.65   13.64
 -12   4  -3  147.95   13.41
 -12  -4  -3  148.27   11.89
 -12   4  -3  169.32   12.74
  12  -4   3  135.56   15.54
 -12   4  -4  107.95   13.84
 -12  -4  -4   96.54   11.81
 -12  -4  -4   99.46    9.76
 -12   4  -4  114.92   10.82
 -12   4  -4  103.82   12.31
  12  -4   4   89.48   12.81
  12   4   4   82.97   12.68
  12  -4   5   31.94    9.23
  12   4   5   27.47    8.54
 -12  -4  -5   43.33    6.93
 -12   4  -5   54.09    8.06
 -12  -4  -5   15.43    8.43
 -12   4  -5   37.21    9.44
  12   4   6  208.93   18.69
  12  -4   6  217.96   19.06
 -12  -4  -6  238.83   16.05
 -12  -4  -6  218.86   19.04
 -12   4  -6  211.26   18.66
  12   4   7    1.77    5.69
  12   4   7   -6.20    6.39
  12  -4   7   -3.74    6.36
  12   4   8    3.49    5.78
  12   4   8   17.61    7.07
  12  -4   8   13.28    7.10
  12   4   9   80.92   10.86
  12  -4   9   67.58   11.85
  12   4  10   -3.49    6.94
  12  -4  10   -1.73    6.45
  12  -4  10    1.98    6.35
  12   4  10   -6.80    5.62
  12  -4  11  252.28   21.48
  12   4  11  295.15   21.43
  12   4  11  258.26   21.01
  12  -4  11  261.72   20.73
  12   4  12   -1.87    8.62
  12  -4  12   -1.84    7.30
  12  -4  12   -2.10    7.85
  12   4  12    1.79    6.08
  12  -4  13  204.27   19.79
  12   4  13  217.85   19.14
  12  -4  13  204.28   18.53
  12   4  13  186.91   17.81
  12  -4  14   53.87   11.85
  12   4  14   59.82   11.53
  12  -4  14   48.88   10.57
  12   4  14   31.78    9.01
  12  -4  15   13.93    8.49
  12   4  15    2.06    7.87
  12  -4  15   -2.02    7.22
  12   4  15   -1.90    6.29
  12  -4  16   96.02   15.60
  12   4  16  102.22   14.42
  12  -4  16   96.15   14.36
  12   4  16  108.06   13.82
  12  -4  17    2.47    7.46
  12   4  17    4.39    7.65
  12  -4  17   -2.16    7.53
  12   4  17    3.90    7.30
  12   4  18   -2.26    8.27
  12  -4  18   -2.23    7.37
 -12   5  19   30.11   13.34
 -12   5  18   44.89   13.55
 -12   5  17   12.27    9.86
 -12   5  16   -5.86    8.54
 -12   5  16   -4.46    7.16
 -12   5  15   44.56   11.57
 -12   5  15   44.40   13.16
 -12   5  15   36.84    9.21
 -12   5  14   54.86   13.96
 -12   5  14   39.75   11.63
 -12   5  14   57.03   11.30
 -12   5  13    2.52    7.09
 -12   5  13    8.73    9.88
 -12   5  13   -2.06    7.35
 -12   5  12    2.01    6.27
  12  -5 -12   -4.88    5.08
 -12   5  12   -2.75    8.30
  12   5 -11   23.52    6.03
  12  -5 -11   21.63    6.42
 -12   5  11   18.26    8.89
  12   5 -10   11.98    5.10
  12  -5 -10    5.85    4.42
 -12   5  10    7.42    7.71
  12   5  -9    7.13    3.86
  12  -5  -9    6.94    4.47
 -12   5   9   11.70    7.53
  12   5  -8   33.94    6.53
  12  -5  -8   23.76    5.74
 -12   5   8   24.20    8.47
 -12   5   8   48.38    7.92
 -12   5   7   51.79   10.50
 -12   5   7   63.10    8.74
  12   5  -7   44.02    7.29
  12  -5  -7   60.81    8.05
 -12   5   7   38.74   10.23
 -12   5   6   -1.96    5.73
 -12   5   6    1.37    4.55
  12   5  -6    1.24    3.63
  12  -5  -6    1.23    4.17
 -12  -5   6    6.24    6.28
 -12   5   6    8.01    6.43
  12   5  -5   62.66    8.10
  12  -5  -5   43.34    6.92
 -12   5   5   30.49    6.90
 -12   5   5   31.33    7.12
 -12  -5   5   39.06    9.25
 -12   5   5   57.84    9.97
 -12   5   5   36.95    8.64
 -12   5   4    1.40    4.23
 -12   5   4    6.95    4.69
 -12  -5   4   -1.83    5.33
 -12   5   4    6.95    5.58
 -12   5   4    6.39    5.64
 -12   5   3   27.81    6.68
 -12   5   3   26.60    6.75
 -12  -5   3   22.18    6.83
 -12   5   3   20.99    6.71
 -12   5   2    1.56    4.21
 -12   5   2    5.12    5.28
 -12  -5   2    1.59    4.81
 -12   5   2    4.53    4.08
 -12  -5   2    5.73    7.66
 -12   5   1   -1.49    4.18
 -12   5   1    5.26    5.80
 -12   5   1    8.53    4.96
 -12  -5   1    1.49    4.92
 -12  -5   1   14.98    8.58
 -12   5   0   38.70    6.97
 -12   5   0   39.70    8.27
 -12  -5   0   26.63    6.27
 -12   5   0   24.43    5.99
 -12  -5   0   32.81    9.26
 -12   5  -1    1.42    3.84
 -12   5  -1    4.33    6.85
 -12   5  -1    9.29    4.14
 -12  -5  -1    2.67    3.90
  12  -5   1   12.49    7.78
  12  -5   2   47.25   10.13
 -12   5  -2   51.91    7.95
 -12   5  -2   37.10    9.08
  12  -5   3  634.81   36.97
  12   5   4 1843.83   76.00
  12  -5   4 1757.03   79.33
  12   5   5    6.20    5.92
  12  -5   5    3.89    6.44
  12   5   6   14.45    6.63
  12  -5   6    3.85    6.89
  12  -5   7   15.46    7.98
  12   5   7    8.31    6.98
  12  -5   8    7.80    6.81
  12   5   8   18.87    7.58
  12  -5   9   55.48   11.61
  12   5   9   53.04    9.83
  12  -5  10   -6.06    7.21
  12   5  10   -3.64    7.10
  12  -5  11   -2.08    7.05
  12   5  11  -10.74    9.26
  12   5  11    7.47    6.68
  12  -5  12   89.75   13.08
  12   5  12  103.36   13.86
  12  -5  13   41.90    9.95
  12   5  13   24.82    8.64
  12   5  13   46.98   10.42
  12  -5  14   -2.28    6.88
  12   5  14  -17.73    8.41
  12   5  14   -5.98    7.78
  12  -5  15    9.39    8.39
  12   5  15   -2.03    6.70
  12  -5  16    4.85    8.23
  12   5  16   10.27    7.34
  12   5  17   26.97    9.05
 -12   6  18    5.00    8.03
 -12   6  18   12.80   10.28
 -12   6  17  102.50   15.21
 -12   6  17   82.83   16.19
 -12   6  16    4.76    7.19
 -12   6  16   14.68    9.71
 -12   6  15  183.63   19.08
 -12   6  15  140.15   18.98
 -12   6  15  199.60   23.36
 -12   6  14   11.37    7.11
 -12   6  14   16.10    9.13
 -12   6  13   13.34    7.56
 -12   6  13    5.93    8.96
 -12   6  12  202.81   20.05
 -12   6  12  200.23   22.77
 -12   6  11   32.15   10.50
 -12   6  10   -2.55    7.69
 -12   6   9   12.05    7.75
 -12   6   9   -1.57    5.32
 -12   6   8   11.41    7.35
 -12   6   8   14.05    5.98
 -12   6   7   88.35   13.14
 -12   6   7   63.79    9.42
 -12   6   6   -4.09    6.38
 -12   6   6    1.56    4.54
 -12   6   5   63.86   10.46
 -12   6   5   34.44    7.58
 -12   6   4   -1.84    5.36
 -12   6   4    1.58    4.44
 -12   6   3    1.74    5.07
 -12   6   2   -3.30    5.14
 -12   6   1   99.85   11.32
 -12   6   0   -1.53    4.90
  12  -6   1   21.19    8.22
 -12   6  -1   63.06    8.64
  12  -6   2    2.11    6.97
 -12   6  -2    4.52    4.24
  12   6   2    4.42    5.63
  12  -6   3  225.21   20.90
 -12   6  -3  263.37   18.81
  12   6   3  274.73   19.58
  12  -6   4   16.46    7.18
  12   6   4    9.56    6.47
  12  -6   5  308.37   23.45
  12   6   5  299.35   21.63
  12  -6   6   22.07    8.63
  12   6   6   39.42    8.82
  12  -6   7  110.46   14.25
  12   6   7  124.03   14.14
  12  -6   8    8.01    6.99
  12   6   8    7.32    6.99
  12  -6   9   -4.06    6.33
  12   6   9   -3.77    7.34
  12  -6  10   31.08    9.21
  12   6  10   34.88    9.01
  12  -6  11   25.33    9.31
  12   6  11   -1.99    6.58
  12  -6  12   36.86   10.20
  12   6  12   28.46    8.89
  12  -6  13   40.09   10.18
  12   6  13   24.90    9.07
  12  -6  14   -2.30    8.76
  12   6  14   10.56    7.55
  12  -6  15   28.38    9.83
  12   6  15   42.84   10.89
 -12   7  17   -3.06   10.94
 -12   7  16   -2.94    8.25
 -12   7  16   10.09   10.41
 -12   7  15    8.47    8.52
 -12   7  15    2.47    7.72
 -12   7  14    8.13    8.18
 -12   7  14    9.45   10.13
 -12   7  14   -2.43    7.56
 -12   7  13   33.31   11.87
 -12   7  13   40.50   10.42
 -12   7  12   17.34   10.57
 -12   7  12    4.69    7.32
 -12   7  11    5.51    8.58
 -12   7  10   -1.76    5.15
 -12   7  10   -5.24    6.78
 -12   7   9  134.47   14.56
 -12   7   9  114.85   16.18
 -12   7   8  162.87   15.79
 -12   7   8  172.66   18.62
 -12   7   7   29.50    7.80
 -12   7   7   11.23    7.03
 -12   7   6  294.72   21.33
 -12   7   6  268.03   22.39
 -12   7   5   12.21    5.62
 -12   7   5   14.22    6.92
 -12   7   4   14.04    6.29
 -12   7   4   17.31    7.21
 -12   7   3    8.86    5.53
 -12   7   3   11.02    6.25
 -12   7   2   22.87    6.76
 -12   7   1   53.74    9.17
 -12   7   0   -3.25    5.53
  12   7   1  157.65   14.29
 -12   7  -1  135.87   13.56
  12   7   2   14.09    6.46
 -12   7  -2    6.27    4.41
  12   7   3  125.43   13.84
 -12   7  -3  134.43   13.02
  12   7   4   49.12    9.75
 -12   7  -4   45.40    8.63
  12   7   5   22.84    7.54
  12   7   6  308.80   22.88
  12   7   7   18.78    8.17
  12   7   8  126.15   15.09
  12   7   9   53.86   10.93
  12   7  10   26.62    9.21
  12   7  11    8.39    8.01
  12   7  12   -2.14    8.00
  12   7  13   30.55    9.97
 -12   8  15   -5.66    7.96
 -12   8  14   -2.73    8.78
 -12   8  14   10.28    8.01
 -12   8  13   43.13   11.63
 -12   8  12   62.56   12.97
 -12   8  11   78.34   12.04
 -12   8  10    1.93    5.62
 -12   8   9   78.27   11.75
 -12   8   8   -5.71    6.12
 -12   8   7    9.54    6.66
 -12   8   6    5.74    5.78
 -12   8   5   59.48   10.61
 -12   8   5   71.88   11.64
 -12   8   4    1.93    5.21
 -12   8   4    2.02    6.88
 -12   8   3  106.67   13.57
 -12   8   3  134.68   15.05
 -12   8   2   33.12    8.35
 -12   8   2   16.61    6.48
 -12   8   1   28.44    7.13
 -12   8   0   -3.41    5.48
  12   8   1   -4.75    6.30
 -12   8  -1    1.66    4.09
  12   8   2   29.73    8.62
 -12   8  -2   37.51    7.51
  12   8   3   39.53    9.10
 -12   8  -3   42.14    7.82
  12   8   4   12.49    6.81
 -12   8  -4   -3.27    5.10
  12   8   5  125.75   14.67
 -12   8  -5  117.23   12.69
  12   8   6   30.68    9.03
  12   8   7   29.63    8.90
  12   8   8   22.43    8.59
  12   8   9    8.38    7.12
  12   8  10    8.58    8.02
  12   8  11   96.45   14.59
 -12   9  11    2.63    8.21
 -12   9  11  -12.76    7.23
 -12   9  10    2.09    6.73
 -12   9   9   66.35   11.77
 -12   9   8   90.84   12.86
 -12   9   7  130.20   15.45
 -12   9   6   20.67    7.24
 -12   9   5   -4.14    6.04
 -12   9   4  116.82   14.20
 -12   9   3   31.38    8.70
 -12   9   2    6.29    6.54
 -12   9   1   67.21   10.99
  12   9   3   34.19    9.17
  12   9   4   65.40   11.51
  12   9   5   27.13    9.24
  12   9   6   94.00   13.63
  12   9   7    8.26    8.05
  12   9   8   44.57   10.58
  12   9   9   56.81   12.09
 -12  10   8   -2.21    6.21
 -12  10   7   22.18    8.68
 -12  10   6   -2.22    6.24
 -12  10   5   20.07    8.18
 -12  10   4   -4.45    6.02
 -12  10   3    4.45    6.00
 -12  10   2   35.70    9.45
 -12  10   1   82.55   12.75
 -12  10   0    4.44    6.93
  12  10   5    2.01    7.99
  12  10   6   29.12    9.78
 -13   0  20   32.09   13.94
 -13   0  19   -6.87   12.27
 -13   0  18   72.51   16.24
 -13   0  17    3.15   10.12
 -13   0  16   77.69   15.86
 -13   0  15   -2.83    9.35
 -13   0  14  135.62   17.61
 -13   0  13   -2.78    8.11
 -13   0  13   -9.96    9.11
 -13   0  12  156.27   17.29
 -13   0  12  129.11   17.17
 -13   0  11    8.71    7.59
 -13   0  11   -2.47    8.83
 -13   0  10   27.92    9.45
  13   0 -10   25.25    6.72
 -13   0  10    8.11    7.27
 -13   0   9   -2.18    6.79
 -13   0   9   -7.61    8.39
  13   0  -9   -3.21    5.16
 -13   0   9   -1.89    7.07
  13   0  -8    6.10    4.76
 -13   0   8    2.38    8.08
 -13   0   8    6.10    7.27
  13   0  -8    4.47    3.70
 -13   0   7   -6.69    8.15
  13   0  -7   -1.45    3.75
 -13   0   7    2.23    6.94
 -13   0   7   -1.90    7.40
 -13   0   7    7.58    6.44
  13   0  -7    1.07    3.02
 -13   0   6  679.03   37.09
 -13   0   6  675.55   36.68
 -13   0   6  751.05   39.96
  13   0  -6  636.39   33.48
 -13   0   6  682.05   38.64
 -13   0   5   -9.54    7.87
 -13   0   5   -3.28    4.95
 -13   0   5   -1.67    7.12
  13   0  -5   -4.00    4.54
 -13   0   5   -3.84    5.80
 -13   0   4 2136.85   86.18
 -13   0   4 1971.75   83.33
  13   0  -4 2076.65   82.32
 -13   0   4 1949.69   85.27
 -13   0   3    3.16    6.40
 -13   0   3   -2.78    4.73
  13   0  -3   -3.86    4.60
 -13   0   3   -3.29    6.28
 -13   0   2  307.04   21.24
 -13   0   2  307.39   20.84
 -13   0   2  331.08   20.20
 -13   0   1   -3.59    3.96
 -13   0   1   -2.72    5.51
 -13   0   1   -4.31    5.26
 -13   0   1   -3.58    3.95
 -13   0   0    3.77    5.28
 -13   0   0   -1.16    3.26
 -13   0   0    3.42    3.56
 -13   0   0    5.23    4.67
 -13   0   0   -1.40    4.75
 -13   0  -1   -1.13    3.62
  13   0   1   -8.19    7.98
 -13   0  -1   -1.29    5.60
 -13   0  -1   -1.14    3.44
 -13   0  -1   -2.48    5.47
  13   0   2   12.25    7.33
 -13   0  -2   14.10    6.07
 -13   0  -2   30.13    7.18
 -13   0  -2   17.62    6.08
 -13   0  -2   22.84    5.53
  13   0   3   -1.99    6.58
 -13   0  -3   -1.13    4.92
 -13   0  -3    1.36    5.19
 -13   0  -3   -1.31    6.53
 -13   0  -3   -1.17    3.86
  13   0   4   -5.87    6.47
 -13   0  -4    4.74    5.47
 -13   0  -4   11.57    7.22
 -13   0  -4   -1.39    7.41
 -13   0  -4    1.22    4.03
 -13   0  -5  -10.88    8.04
  13   0   5    5.77    6.87
 -13   0  -5    1.24    5.90
  13   0   6    9.50    6.95
  13   0   7   -5.65    6.73
  13   0   8   18.93    8.24
  13   0   9    3.83    6.83
  13   0   9   -8.98    6.26
  13   0  10    1.95    6.95
  13   0  10    5.55    6.28
  13   0  11   -3.99    6.22
  13   0  11    1.90    5.74
  13   0  12   10.21    7.13
  13   0  12   15.66    7.49
  13   0  13   -4.20    7.68
  13   0  13    2.02    6.86
  13   0  14   47.59   10.55
  13   0  14   56.18   11.49
  13   0  15    2.23    7.57
  13   0  15   -4.29    8.20
  13   0  16   36.73   10.13
  13   0  16    4.42    6.91
  13   0  17    2.36    8.43
  13   0  17  -11.40   10.21
  13   0  18  215.48   21.73
  13   0  18  239.22   22.52
 -13  -1  20   -3.56   13.32
 -13   1  20    3.58   11.50
 -13  -1  19   13.72   13.64
 -13   1  19    3.45   10.75
 -13  -1  18   19.77   11.81
 -13   1  18   39.63   13.89
 -13  -1  17   -6.31   11.27
 -13   1  17    3.14    8.83
 -13   1  16  119.19   18.98
 -13  -1  16  140.97   19.80
 -13   1  15   19.66   10.52
 -13  -1  15   17.08    9.94
 -13   1  14    7.95    7.73
 -13   1  14    5.95    8.67
 -13  -1  14   -2.69    8.38
 -13  -1  13   70.47   13.00
 -13   1  13   82.24   13.31
 -13   1  13   59.48   13.88
 -13  -1  13  110.97   16.57
 -13  -1  12   42.36   10.75
 -13  -1  12   33.45   11.40
 -13   1  12   39.70   10.19
 -13   1  12   16.08    8.93
 -13  -1  11   12.13    9.64
 -13  -1  11    2.19    7.44
 -13   1  11   -2.19    7.82
 -13   1  11    5.04    7.08
 -13  -1  10    2.28    7.32
 -13  -1  10   -8.13    7.60
 -13   1  10   -6.17    7.85
  13   1 -10    1.69    4.92
  13  -1 -10   -3.34    4.70
 -13   1  10   -2.38    6.41
 -13  -1   9  296.04   23.31
 -13  -1   9  252.00   20.82
 -13   1   9  307.15   23.86
 -13  -1   9  266.13   24.32
 -13   1   9  262.61   24.36
  13   1  -9  303.02   20.58
  13  -1  -9  271.54   19.70
  13   1  -9  270.13   17.39
 -13  -1   8   66.10   10.54
 -13  -1   8   89.49   12.49
 -13   1   8   66.81   11.93
  13   1  -8   65.93    7.88
 -13  -1   8   93.67   14.65
 -13   1   8   47.34   11.72
  13   1  -8   36.71    7.56
  13  -1  -8   64.92    9.14
 -13   1   7  186.92   17.70
 -13  -1   7  194.70   16.70
 -13  -1   7  194.55   17.69
 -13  -1   7  203.58   19.32
 -13   1   7  186.89   18.16
  13   1  -7  206.34   13.86
  13  -1  -7  193.56   13.96
  13   1  -7  195.20   15.56
  13  -1  -7  205.33   15.78
 -13  -1   7  153.15   17.55
 -13   1   7  172.69   18.38
 -13   1   7  235.54   20.48
 -13  -1   6   82.72   11.28
 -13   1   6  105.28   12.63
 -13  -1   6   91.97   12.87
 -13   1   6   97.43   13.10
  13   1  -6   99.60   10.76
  13  -1  -6  131.89   11.72
 -13  -1   6  113.42   14.37
 -13   1   6  101.05   13.66
 -13   1   6  126.78   14.67
 -13  -1   6  114.18   15.83
 -13  -1   5   49.47    8.80
 -13   1   5   62.40    9.99
 -13  -1   5   64.06   10.66
 -13   1   5   59.73   10.17
  13   1  -5   72.25    8.81
  13  -1  -5   66.59    8.33
 -13  -1   5   81.57   11.44
 -13   1   5   51.64    9.68
 -13  -1   5   64.61   11.98
 -13   1   5   60.33   10.93
 -13  -1   4    1.48    4.47
 -13   1   4    4.65    4.84
  13   1  -4    2.61    3.93
  13  -1  -4    5.21    3.80
 -13  -1   4    1.79    5.76
 -13   1   4    1.77    5.16
 -13   1   4    8.13    6.82
 -13  -1   4    1.82    8.27
 -13   1   3   94.78   10.66
 -13  -1   3   97.81   10.68
  13   1  -3  105.59   10.28
  13  -1  -3  105.88   10.35
 -13  -1   3   68.07   10.48
 -13   1   3   78.85   10.69
 -13   1   3   99.09   11.88
 -13  -1   3  117.76   13.34
 -13  -1   2  213.67   16.72
 -13   1   2  183.96   15.26
 -13  -1   2  154.62   13.51
 -13   1   2  190.94   14.77
 -13  -1   2  178.58   15.34
 -13   1   2  171.28   15.16
 -13  -1   1  107.33   11.08
 -13   1   1  109.57   10.99
 -13  -1   1  119.80   10.86
 -13  -1   1  105.60   10.53
 -13   1   1  111.75   10.93
 -13  -1   1  153.12   13.59
 -13   1   1  108.74   11.77
 -13  -1   1  113.04   11.98
 -13   1   1  114.36   11.86
 -13  -1   0  463.09   24.59
 -13  -1   0  399.96   23.41
 -13   1   0  474.15   25.14
 -13   1   0  447.96   25.67
 -13  -1   0  496.18   26.58
 -13  -1   0  408.33   24.17
 -13   1   0  424.51   24.43
 -13  -1   0  517.68   26.64
 -13   1   0  497.29   26.05
 -13  -1   0  486.15   26.52
 -13   1   0  448.34   26.00
  13  -1   1  524.10   33.27
 -13  -1  -1  575.22   29.78
 -13   1  -1  560.81   29.67
 -13  -1  -1  572.74   27.94
 -13   1  -1  552.39   28.50
 -13  -1  -1  558.13   28.41
 -13  -1  -1  560.65   28.48
 -13   1  -1  534.56   28.10
 -13  -1  -1  558.69   29.42
 -13   1  -1  561.95   29.22
  13   1   2  198.59   18.99
  13  -1   2  194.72   18.70
 -13   1  -2  218.99   16.58
 -13  -1  -2  192.79   15.49
 -13  -1  -2  224.80   15.72
 -13  -1  -2  215.12   16.18
 -13   1  -2  223.60   16.23
 -13  -1  -2  182.06   14.15
 -13   1  -2  198.80   14.67
 -13  -1  -3  196.65   15.30
  13   1   3  167.64   17.33
  13  -1   3  162.94   17.02
 -13   1  -3  210.54   16.18
 -13  -1  -3  193.17   14.84
 -13  -1  -3  152.16   14.12
 -13   1  -3  166.71   14.59
 -13  -1  -3  168.07   13.14
 -13   1  -3  156.76   13.02
  13  -1   4   27.65    8.74
  13   1   4   31.36    8.26
 -13  -1  -4   12.94    6.73
 -13   1  -4   16.59    5.70
 -13  -1  -4   25.27    7.85
 -13   1  -4   22.47    8.37
 -13  -1  -4   21.02    7.68
 -13   1  -4   24.86    7.01
 -13  -1  -4   17.92    5.15
 -13   1  -4   18.65    5.44
  13   1   5   55.90   10.49
  13  -1   5   50.52   10.57
 -13   1  -5   66.01    9.02
 -13  -1  -5   71.02   10.98
 -13  -1  -5   45.32    7.42
 -13   1  -5   63.32    8.83
  13  -1   6   15.36    7.95
  13   1   6   24.70    8.01
 -13   1  -6   26.68    7.18
  13  -1   7  100.91   13.24
  13   1   7  139.26   14.95
  13   1   8  117.10   14.32
  13  -1   8   15.33    6.95
  13   1   9   -3.78    6.58
  13  -1   9   11.67    8.44
  13   1  10   27.76    7.70
  13  -1  10   25.86    8.08
  13   1  10   32.74    8.69
  13  -1  10   33.59    8.50
  13   1  11    1.91    6.15
  13   1  11    7.85    6.50
  13  -1  11   18.21    7.41
  13   1  12   21.58    8.27
  13  -1  12   35.18    9.79
  13   1  12   34.06    9.01
  13  -1  12   10.39    7.81
  13   1  13   44.48   10.30
  13  -1  13   84.54   12.82
  13   1  13   47.40   10.50
  13  -1  13   76.97   12.53
  13   1  14   43.78   10.87
  13  -1  14   31.13    9.94
  13   1  14   55.17   10.94
  13  -1  14   37.47   10.27
  13   1  15   -6.45    7.68
  13  -1  15    8.56    7.08
  13   1  15   13.10    7.99
  13  -1  15   11.36    8.49
  13   1  16   95.29   14.46
  13  -1  16   77.20   13.44
  13   1  16  112.43   14.77
  13  -1  16  123.82   15.74
  13   1  17   27.41    9.96
  13  -1  17   15.92    8.55
  13   1  17   27.74    9.58
  13  -1  17   43.24   11.12
  13   1  18   -4.70    9.16
  13  -1  18   -9.36   10.15
  13   1  18   -7.11    9.78
  13  -1  18    9.87    9.43
 -13  -2  20  -10.64   13.55
 -13   2  20   -7.20   12.55
 -13  -2  19    6.86   11.03
 -13   2  19   13.82   12.04
 -13   2  18   13.23   10.95
 -13  -2  18    9.88   12.32
 -13   2  17   12.56    9.79
 -13  -2  17   -3.15   11.53
 -13   2  16  202.53   23.06
 -13  -2  16  210.53   24.41
 -13   2  15    2.82    9.32
 -13   2  15   15.78   11.00
 -13  -2  15   -2.86    9.98
 -13   2  14  199.59   23.07
 -13   2  14  183.80   20.91
 -13  -2  14  222.41   23.06
 -13   2  13   -2.51    7.57
 -13  -2  13    2.56    9.35
 -13   2  13    2.88    8.40
 -13   2  12   -2.72    7.02
 -13  -2  12   19.98    9.93
 -13   2  12   16.55    8.65
 -13  -2  12    2.39    7.47
 -13  -2  11  229.89   21.13
 -13   2  11  216.34   20.46
 -13  -2  11  191.38   20.53
 -13  -2  10   30.97   10.13
 -13  -2  10   46.63   10.60
  13   2 -10   30.15    6.90
  13  -2 -10   32.94    7.03
 -13   2  10   26.65    9.34
  13   2 -10   49.30    7.14
 -13  -2   9    9.54    7.29
 -13   2   9   15.17    9.25
  13   2  -9   15.98    5.98
  13  -2  -9   10.95    5.04
 -13  -2   9   14.50    8.39
 -13   2   9   13.65    8.51
  13   2  -9    5.50    3.45
 -13  -2   8  531.17   31.79
 -13  -2   8  486.38   29.96
 -13   2   8  508.00   32.27
  13   2  -8  495.85   25.37
 -13  -2   8  537.76   34.56
 -13   2   8  520.85   33.66
  13   2  -8  464.23   27.78
  13  -2  -8  496.11   28.35
 -13  -2   7   35.38    8.45
 -13   2   7   34.25    9.30
 -13  -2   7   26.98    7.60
 -13   2   7   23.95    8.13
  13   2  -7   22.61    5.21
 -13  -2   7   21.41    9.27
 -13   2   7   18.89    8.11
 -13  -2   7   13.70    8.94
 -13   2   7   24.38    9.34
  13   2  -7   24.64    6.35
  13  -2  -7   24.22    5.94
 -13  -2   6  151.23   14.28
 -13  -2   6  162.12   15.22
 -13   2   6  190.92   16.91
 -13  -2   6  175.57   18.93
 -13   2   6  117.54   14.18
 -13  -2   6  153.39   16.59
 -13   2   6  210.88   18.55
 -13  -2   6  150.01   15.98
 -13   2   6  152.58   15.43
  13   2  -6  131.56   12.61
  13  -2  -6  171.73   13.82
 -13  -2   5   10.75    5.77
 -13  -2   5   21.76    6.21
 -13   2   5   15.62    6.09
 -13  -2   5   41.97   10.62
 -13   2   5   13.05    6.26
 -13  -2   5   22.27    7.09
 -13   2   5   16.62    6.64
  13   2  -5   17.37    5.25
  13  -2  -5   17.23    4.78
 -13  -2   5   21.78    7.10
 -13   2   5   32.67    8.36
 -13  -2   4    6.31    4.92
 -13  -2   4   -2.88    4.90
 -13   2   4    1.61    4.35
 -13  -2   4    3.76    6.39
 -13   2   4   -1.53    5.59
  13   2  -4   -2.60    3.66
 -13  -2   4    1.83    5.88
 -13   2   4    1.78    5.00
 -13  -2   3  188.92   16.62
 -13   2   3  183.41   15.32
 -13  -2   3  199.25   14.87
 -13   2   3  169.36   14.53
 -13  -2   3  149.89   12.93
 -13  -2   3  150.79   15.03
 -13   2   3  210.51   16.67
 -13  -2   2   -3.40    5.73
 -13   2   2   -2.80    4.09
 -13  -2   2   -9.78    4.67
 -13  -2   2   -3.05    5.44
 -13   2   2    2.72    5.09
 -13  -2   2   -1.57    4.42
 -13   2   2   -4.65    5.12
 -13  -2   1    1.22    4.26
 -13   2   1   -4.86    5.10
 -13  -2   1    5.64    4.03
 -13   2   1    5.30    3.72
 -13  -2   1    2.35    5.02
 -13  -2   1    4.18    5.44
 -13   2   1    1.32    5.35
 -13  -2   1    2.95    4.14
 -13   2   1   -1.46    3.94
 -13   2   0  119.22   10.79
 -13  -2   0   88.20   10.85
 -13   2   0   90.13   10.65
 -13  -2   0   94.10    9.99
 -13  -2   0   97.62   10.62
 -13  -2   0  109.17    9.72
 -13   2   0  104.89   10.30
 -13  -2   0   95.66   10.91
 -13   2   0   95.92   10.79
 -13   2   0   87.94   10.28
 -13  -2   0   87.44   10.11
 -13  -2  -1   12.64    6.32
 -13  -2  -1   11.10    3.96
 -13   2  -1   16.58    4.69
  13  -2   1   25.32    9.02
 -13  -2  -1   11.37    5.59
 -13   2  -1   13.37    6.27
 -13  -2  -1    8.02    4.21
 -13   2  -1   11.66    4.48
 -13  -2  -1   13.94    6.10
 -13   2  -1   26.72    6.84
 -13   2  -2  200.89   15.77
  13  -2   2  175.82   17.74
 -13  -2  -2  156.84   13.89
 -13  -2  -2  180.77   12.50
 -13  -2  -2  170.31   14.69
 -13  -2  -2  151.10   14.09
 -13   2  -2  168.13   14.39
 -13  -2  -2  165.18   12.95
 -13   2  -2  171.56   13.38
  13  -2   3   65.11   11.36
  13   2   3   40.07   10.40
 -13  -2  -3   54.57    9.62
 -13  -2  -3   51.13    9.26
 -13   2  -3   49.59    9.11
 -13  -2  -3   50.19    7.07
 -13   2  -3   43.41    7.02
 -13  -2  -3   61.29    9.16
 -13   2  -3   64.11   10.00
  13  -2   4   33.96    9.97
  13   2   4    1.97    6.14
 -13  -2  -4    8.56    6.95
 -13   2  -4   25.00    8.25
 -13  -2  -4    5.88    4.01
 -13   2  -4   15.16    6.00
 -13  -2  -4    5.51    6.54
  13   2   5  189.61   17.72
  13  -2   5  188.70   17.96
 -13  -2  -5  170.54   15.67
 -13  -2  -5  180.87   14.25
 -13   2  -5  190.49   15.03
 -13  -2  -6  308.73   22.22
  13   2   6  275.96   22.28
  13  -2   6  308.95   23.19
 -13   2  -6  319.52   19.58
  13  -2   7   -1.95    6.61
  13   2   7    1.88    6.05
  13   2   8  765.10   40.83
  13  -2   8  749.43   41.02
  13   2   9   -3.79    6.60
  13  -2   9   13.90    7.26
  13   2  10   90.93   12.54
  13  -2  10   92.37   12.49
  13   2  10   89.05   12.70
  13  -2  10  104.86   13.64
  13   2  11   13.39    7.51
  13  -2  11   22.81    8.03
  13   2  11   32.88    9.09
  13   2  12   -1.97    7.53
  13  -2  12    5.86    7.62
  13   2  12    3.95    6.70
  13  -2  12   19.06    9.04
  13   2  13   -2.03    7.42
  13  -2  13   -6.04    8.15
  13   2  13   -4.04    7.39
  13  -2  13    2.18    7.21
  13   2  14   -6.26    8.77
  13  -2  14  -10.34    9.26
  13   2  14   -2.07    7.57
  13  -2  14   -2.24    8.57
  13   2  15   -4.31    7.88
  13  -2  15    4.27    7.43
  13   2  15   -6.39    7.78
  13  -2  15   -4.63    7.43
  13   2  16   -4.44    7.74
  13  -2  16   -2.20    7.67
  13   2  16    4.37    6.60
  13  -2  16    2.38    6.69
  13   2  17   -4.57    7.96
  13  -2  17    6.79    8.82
  13   2  17    2.25    7.00
  13  -2  17    4.89    8.30
 -13  -3  20   10.59   13.20
 -13  -3  19   40.91   15.31
 -13   3  19   27.70   13.27
 -13   3  18    3.31    9.65
 -13  -3  18    9.82   12.24
 -13   3  17   50.33   13.95
 -13  -3  17   37.71   13.50
 -13   3  16   44.89   12.37
 -13  -3  16   12.02   10.77
 -13   3  15   31.24   10.41
 -13  -3  15   25.71   12.42
 -13   3  15   12.79   10.30
 -13   3  14   82.83   15.46
 -13   3  14   88.65   15.44
 -13  -3  14  108.21   16.91
 -13   3  13    2.92    9.38
 -13   3  13   -2.54    7.93
 -13  -3  13   -2.56    9.76
 -13   3  12  215.78   22.19
 -13   3  12  202.20   20.42
 -13  -3  12  194.99   20.93
 -13  -3  11    6.76    8.61
  13   3 -11    8.63    5.71
  13  -3 -11   -1.70    4.94
 -13   3  11   10.45    7.88
 -13  -3  10  154.98   16.95
  13   3 -10  135.36   13.95
  13  -3 -10  143.74   13.92
 -13   3  10  153.15   17.43
 -13  -3   9   12.11    7.73
  13   3  -9   18.88    5.66
  13  -3  -9   18.43    5.65
 -13   3   9   25.55    8.51
 -13  -3   8   99.39   13.34
 -13   3   8   89.59   13.10
  13   3  -8   93.34   10.60
  13  -3  -8   79.05    9.88
 -13  -3   8   69.15   13.54
 -13   3   8   90.51   14.22
 -13  -3   7   52.31    9.97
 -13  -3   7   37.55    9.94
 -13   3   7   39.89    9.79
 -13   3   7   22.53    8.24
 -13  -3   7   25.53    8.58
 -13   3   7   46.84   10.51
  13   3  -7   41.65    7.19
  13  -3  -7   32.19    6.48
 -13  -3   6  104.94   12.68
 -13  -3   6  102.40   14.01
 -13   3   6   86.33   12.12
 -13   3   6   87.57   12.67
 -13   3   6  124.68   13.68
 -13  -3   6  126.08   15.18
 -13   3   6  123.20   14.80
  13   3  -6  109.91   11.24
  13  -3  -6  117.61   11.47
 -13  -3   5    1.14    5.38
 -13  -3   5   -1.50    5.35
 -13   3   5    5.40    4.86
 -13  -3   5   -8.43    8.54
 -13   3   5    3.03    6.01
 -13  -3   5    8.10    7.06
 -13   3   5   -1.94    5.24
 -13  -3   5   12.24    7.59
 -13   3   5   -3.35    6.91
  13   3  -5    1.33    3.88
  13  -3  -5   -1.32    4.35
 -13  -3   4  184.63   14.66
 -13  -3   4  163.95   13.78
 -13   3   4  162.94   15.05
 -13  -3   4  199.99   17.91
 -13   3   4  125.18   13.63
  13   3  -4  149.57   12.87
  13  -3  -4  158.83   13.12
 -13   3   4  155.01   15.37
 -13  -3   4  159.76   15.74
 -13  -3   3   73.28    9.53
 -13   3   3   62.80    9.37
 -13  -3   3   68.34    8.87
 -13  -3   3   65.85   10.30
 -13   3   3   47.91    8.63
 -13  -3   3   40.06    8.81
 -13   3   3   45.34    8.81
 -13  -3   2   -1.26    6.66
 -13   3   2   -1.47    4.59
 -13  -3   2    1.19    4.16
 -13  -3   2    3.04    5.92
 -13   3   2   -1.33    5.49
 -13  -3   2   -4.84    6.03
 -13   3   2   -4.72    5.35
 -13   3   1    8.46    5.98
 -13  -3   1    6.49    5.92
 -13  -3   1    9.11    7.05
 -13  -3   1   13.26    4.74
 -13   3   1   22.41    6.00
 -13   3   1    3.96    5.47
 -13  -3   1   15.07    5.40
 -13   3   1   13.40    5.46
 -13   3   0   99.53    9.95
 -13  -3   0   53.85    8.16
 -13  -3   0  108.61   11.44
 -13   3   0   86.27   10.29
 -13  -3   0   99.71   11.51
 -13   3   0   86.79   10.02
 -13  -3   0   90.38    8.86
 -13  -3   0  122.46   11.58
 -13   3   0  109.64   11.38
 -13  -3   0  100.40   10.95
 -13   3   0   80.56    9.90
 -13  -3  -1   12.54    7.09
  13  -3   1   32.29    9.23
 -13  -3  -1   18.56    5.34
 -13   3  -1   28.45    6.05
 -13  -3  -1   26.83    7.70
 -13   3  -1   25.33    6.77
 -13  -3  -1   27.45    6.93
 -13   3  -1   27.54    7.41
 -13  -3  -1   26.13    4.90
 -13   3  -1   24.44    5.86
 -13   3  -2  177.39   15.65
  13  -3   2  215.82   19.58
 -13  -3  -2  233.35   16.24
 -13  -3  -2  219.18   16.43
 -13   3  -2  195.03   15.64
 -13  -3  -2  179.41   13.99
 -13   3  -2  225.81   15.45
 -13  -3  -2  184.80   13.02
 -13  -3  -3   52.67    8.51
  13  -3   3   43.70   10.86
 -13  -3  -3   34.19    6.52
 -13   3  -3   60.83    8.13
 -13  -3  -3   34.42    8.78
 -13   3  -3   39.58    8.61
 -13  -3  -4   80.41   11.27
  13  -3   4   93.98   13.02
  13   3   4  101.85   14.09
 -13  -3  -4   68.73   10.84
 -13   3  -4  101.53   12.24
 -13  -3  -4   88.42    9.63
 -13   3  -4   97.92   10.53
 -13  -3  -5  252.65   20.15
  13   3   5  298.07   23.16
  13  -3   5  322.03   23.86
  13  -3   6  151.13   16.56
  13   3   6  121.75   14.58
  13  -3   7   13.94    7.76
  13   3   7   -1.90    6.11
  13  -3   8   14.01    7.50
  13   3   8   17.09    7.85
  13  -3   9    6.08    6.72
  13   3   9   18.83    7.77
  13  -3  10  154.40   16.59
  13   3  10  149.48   16.15
  13   3  11   72.47   11.60
  13  -3  11   77.95   12.54
  13   3  11   67.02   11.45
  13  -3  11   72.00   11.81
  13  -3  12  367.26   27.43
  13   3  12  376.22   26.25
  13   3  12  371.49   26.67
  13  -3  12  435.02   27.87
  13   3  13   23.71    8.47
  13  -3  13   26.65    9.82
  13   3  13   14.25    9.15
  13  -3  13   24.08    9.54
  13  -3  14    6.86    7.58
  13   3  14   23.01    8.33
  13  -3  14   16.48    7.88
  13  -3  15   -2.35    8.00
  13   3  15   -2.16    7.89
  13  -3  15   -6.36    7.93
  13  -3  16   -7.26    9.04
  13   3  16   -2.22    7.74
  13  -3  16    4.37    7.81
  13  -3  17   27.34   10.11
  13   3  17   29.66    9.78
  13  -3  17   20.24    9.64
 -13   4  19   -3.45   10.77
 -13   4  18    9.92    9.65
 -13   4  17   72.64   15.58
 -13   4  16    9.03    9.67
 -13   4  15  140.25   19.00
 -13   4  15  103.64   17.81
 -13   4  14   52.82   13.29
 -13   4  14  103.27   16.06
 -13   4  13   90.67   12.74
 -13   4  13   53.27   13.68
 -13   4  13   69.78   13.29
 -13   4  12   -3.77    7.05
 -13   4  12    8.43    8.48
  13   4 -12   -1.76    5.12
  13  -4 -12   -3.46    4.48
 -13   4  11    2.67    6.57
  13   4 -11    1.68    4.55
  13  -4 -11    6.60    4.64
  13   4 -10    3.22    4.16
  13  -4 -10    3.15    4.91
 -13   4   9  102.46   14.13
  13   4  -9  104.92   11.40
  13  -4  -9   73.45    9.79
 -13   4   8  137.25   16.73
 -13  -4   8  162.33   19.07
 -13   4   8  168.53   18.25
  13   4  -8  188.58   15.18
  13  -4  -8  168.76   14.20
 -13   4   7   63.42   11.33
 -13  -4   7   60.11   12.15
 -13   4   7   53.68   10.96
  13   4  -7   80.34    9.77
  13  -4  -7   85.25    9.67
 -13  -4   7   75.20   13.19
 -13   4   7   74.33   12.54
 -13   4   6    7.21    6.74
 -13   4   6   -8.00    6.97
 -13  -4   6    7.57    7.66
 -13  -4   6    2.24    8.90
  13   4  -6   10.85    4.49
  13  -4  -6    4.01    3.61
 -13  -4   6   13.26    7.70
 -13   4   6    8.43    7.16
 -13   4   5   -2.47    4.31
 -13   4   5   -3.75    6.02
 -13  -4   5   -1.78    6.66
 -13   4   5   -5.08    7.35
  13   4  -5   -6.60    4.12
  13  -4  -5   -1.31    3.54
 -13  -4   5   -4.14    7.74
 -13   4   5   -1.97    6.51
 -13  -4   5    6.18    7.53
 -13   4   5   -2.85    6.09
 -13  -4   4  623.85   33.73
 -13   4   4  521.03   28.89
 -13   4   4  479.07   29.91
 -13  -4   4  549.25   31.35
 -13   4   4  506.80   30.11
 -13  -4   4  530.88   32.08
 -13   4   4  506.26   31.15
 -13  -4   3   33.36    8.31
 -13   4   3   18.11    6.61
 -13  -4   3   29.78    8.70
 -13   4   3   28.09    7.21
 -13  -4   3   25.12    7.85
 -13   4   3   37.64    8.28
 -13   4   2  323.19   21.64
 -13   4   2  388.29   23.83
 -13  -4   2  416.87   24.00
 -13  -4   2  371.62   23.99
 -13   4   2  313.54   22.42
 -13   4   1   22.37    6.19
 -13  -4   1   21.91    6.71
 -13   4   1    7.60    5.34
 -13  -4   1   28.56    9.06
 -13   4   1   29.50    7.57
 -13  -4   1   25.62    7.63
 -13   4   1   14.19    5.64
 -13   4   0    1.44    4.35
 -13  -4   0    1.47    5.00
 -13   4   0   -1.46    5.58
 -13  -4   0    8.90    7.92
 -13   4   0    5.51    5.47
 -13  -4   0   -1.22    5.05
 -13   4   0    8.49    4.92
 -13  -4   0    3.81    5.85
 -13   4   0    5.90    5.59
  13  -4   1   65.82   12.44
 -13   4  -1   86.58   10.15
 -13  -4  -1   54.18    8.65
 -13  -4  -1   84.97   10.56
 -13   4  -1   78.52   10.12
 -13  -4  -1   66.43    8.71
 -13   4  -1   62.27    8.11
 -13   4  -1   61.85    8.65
  13  -4   2   -2.18    7.61
 -13  -4  -2   -5.34    7.50
 -13   4  -2    2.53    6.07
 -13  -4  -2    1.16    4.52
 -13   4  -2   -1.20    4.18
 -13   4  -2    4.41    3.97
  13  -4   3   17.02    8.13
 -13  -4  -3   18.29    7.84
 -13   4  -3    4.03    6.45
 -13  -4  -3    3.43    4.38
 -13   4  -3    7.30    4.14
  13  -4   4  167.35   17.57
 -13  -4  -4  169.74   13.51
 -13   4  -4  174.79   14.46
 -13   4  -4  190.61   16.37
  13  -4   5   77.03   12.70
  13   4   5   92.10   13.20
  13   4   6    1.99    6.19
  13  -4   6    2.06    6.21
  13   4   7  294.98   23.17
  13  -4   7  332.91   24.43
  13  -4   8   61.42   11.15
  13  -4   9  385.44   27.25
  13  -4  10   38.01    9.96
  13  -4  11  107.41   14.69
  13  -4  12  127.83   16.08
  13   4  12  133.94   15.52
  13  -4  12  118.12   14.44
  13  -4  13   -2.26    8.08
  13   4  13    8.12    8.37
  13  -4  13   -3.99    8.51
  13  -4  14   81.36   13.58
  13   4  14  108.61   14.37
  13  -4  14   90.11   12.98
  13  -4  15   11.96    8.77
  13   4  15   23.62    9.78
  13  -4  15   25.27    9.87
  13  -4  16   -2.46    8.12
  13   4  16    2.21    7.88
  13  -4  16    6.49    6.95
  13   4  17    6.78    7.69
  13  -4  17   17.76    8.66
 -13   5  18    3.30    9.63
 -13   5  17   44.31   12.91
 -13   5  16   33.29   11.12
 -13   5  15   -2.88    8.99
 -13   5  15    6.56    9.22
 -13   5  15   -4.41    8.06
 -13   5  14    6.31   10.13
 -13   5  14    2.75    8.02
 -13   5  14   -2.16    6.72
 -13   5  13    8.42    6.98
  13   5 -13   14.08    6.30
 -13   5  13   15.05   10.23
 -13   5  13   23.63    9.61
 -13   5  12   28.90    8.99
 -13   5  12   17.20   10.51
  13   5 -12   21.98    6.77
 -13   5  11   21.80    9.27
  13   5 -11   11.34    5.07
  13   5 -10   17.13    5.86
  13  -5 -10   16.72    5.60
 -13   5   9    7.38    7.43
  13   5  -9    4.47    4.02
  13  -5  -9    1.45    3.57
 -13   5   8   37.06    9.93
  13   5  -8   35.64    6.91
  13  -5  -8   15.33    5.39
 -13   5   7   -2.20    7.26
  13   5  -7    2.75    3.22
  13  -5  -7   -1.35    3.64
 -13  -5   7   -4.74    9.43
 -13   5   7    6.84    8.14
 -13   5   6    2.07    6.85
 -13   5   6    4.21    4.77
  13   5  -6    1.33    3.45
  13  -5  -6   -1.32    3.70
 -13  -5   6    4.47    6.97
 -13   5   6   -2.13    5.99
 -13   5   5   15.70    6.85
 -13   5   5    5.68    4.83
  13   5  -5    6.49    3.66
  13  -5  -5    7.79    4.06
 -13  -5   5   12.62    7.15
 -13   5   5   15.98    6.97
 -13   5   4   -1.85    5.75
 -13   5   4    9.34    6.67
 -13  -5   4   -1.97    6.35
 -13   5   4    2.67    4.88
 -13   5   3   24.37    7.21
 -13   5   3   25.31    6.60
 -13  -5   3   18.48    7.37
 -13   5   3    6.99    6.27
 -13   5   2   66.39    9.84
 -13   5   2   81.07   10.39
 -13  -5   2   55.28   10.05
 -13   5   2   50.87    8.86
 -13  -5   2   68.21   11.30
 -13   5   1   99.54   11.53
 -13  -5   1   92.06   11.60
 -13   5   1   93.47   11.40
 -13  -5   0   60.84    9.87
 -13   5   0   68.10    9.83
 -13   5   0   83.28   10.42
  13  -5   1   67.28   12.07
 -13  -5  -1   66.84    9.27
 -13   5  -1   63.66    9.02
 -13   5  -1   61.07    9.18
  13  -5   2  487.60   32.21
 -13  -5  -2  474.79   26.90
 -13   5  -2  469.57   27.50
  13  -5   3    2.19    6.84
  13  -5   4   66.97   12.59
  13  -5   5   48.94   10.63
  13  -5   6    4.24    6.82
  13  -5   7    2.12    6.81
  13   5   7   -1.71    6.11
  13  -5   8   23.16    8.90
  13   5   8   35.22    9.16
  13  -5   9   29.70    9.18
  13   5   9   61.65   10.87
  13  -5  10   17.32    8.44
  13   5  10   -1.86    7.54
  13  -5  11   17.56    8.59
  13   5  11   24.81    8.71
  13  -5  12   11.22    7.83
  13   5  12    9.75    7.14
  13  -5  13   23.01    9.17
  13   5  13   19.91    8.53
  13  -5  14   56.65   12.11
  13   5  14   64.79   11.79
  13  -5  15   79.94   14.10
  13   5  15   65.80   12.25
  13   5  16   99.80   15.00
 -13   6  17    3.16    9.55
 -13   6  16   14.49    8.43
 -13   6  16   12.13   11.10
 -13   6  15   42.58   10.91
 -13   6  15   69.70   14.44
 -13   6  15   56.50   14.77
 -13   6  14   12.83   10.93
 -13   6  14   19.47    9.74
 -13   6  13   25.00    9.25
 -13   6  13   24.58   11.76
 -13   6  12   26.84    9.30
 -13   6  12   46.87   13.36
 -13   6  11   16.78    9.00
 -13   6  10   23.98    9.78
 -13   6   9   -2.53    7.10
 -13   6   8   -9.59    8.15
 -13   6   7  205.15   20.37
 -13   6   7  295.46   19.90
 -13   6   6    2.16    6.29
 -13   6   6    4.75    6.05
 -13   6   5  250.36   21.44
 -13   6   5  293.47   20.32
 -13   6   4   48.44    9.74
 -13   6   4   59.96    9.47
 -13   6   3  363.98   24.78
 -13   6   2   -5.30    7.03
 -13   6   1  200.85   17.13
 -13   6   0    6.56    5.72
  13  -6   1   61.36   11.99
 -13   6  -1   72.55    9.94
  13  -6   2    2.29    6.91
  13  -6   3  116.03   15.97
 -13   6  -3  131.40   13.53
  13  -6   4   11.23    7.44
  13  -6   5   15.49    8.46
  13   6   5    8.50    6.08
  13  -6   6   21.84    8.55
  13   6   6   26.36    8.37
  13  -6   7   -6.54    9.15
  13   6   7   -1.81    6.92
  13  -6   8   45.82   10.06
  13   6   8   52.30   10.43
  13  -6   9   17.51    8.20
  13   6   9   17.28    8.22
  13  -6  10   -2.21    7.88
  13   6  10   -1.97    7.03
  13  -6  11  119.18   16.13
  13   6  11  141.14   15.98
  13  -6  12   11.40    8.72
  13   6  12   18.53    8.51
  13  -6  13  137.34   17.21
  13   6  13  155.34   16.99
  13  -6  14   19.07    9.48
  13   6  14    6.40    7.63
  13  -6  15   34.19   11.16
 -13   7  16    3.04    9.17
 -13   7  16   -5.12    8.69
 -13   7  15   11.68    9.11
 -13   7  15   10.08   11.42
 -13   7  15   15.09   10.00
 -13   7  14   26.02   11.90
 -13   7  14   16.84    9.29
 -13   7  14    7.40    7.71
 -13   7  13   43.83   12.72
 -13   7  13   21.89    9.34
 -13   7  12    3.00    9.35
 -13   7  12   14.40    9.73
 -13   7  11   45.81   12.73
 -13   7  10  123.20   16.81
 -13   7   9    2.61    7.05
 -13   7   8   33.46    8.12
 -13   7   8   49.55   11.66
 -13   7   7  147.71   14.92
 -13   7   7  127.41   16.23
 -13   7   6   -5.31    6.75
 -13   7   6    2.25    6.32
 -13   7   5  111.87   13.38
 -13   7   5  135.50   15.40
 -13   7   4   10.77    5.94
 -13   7   4   -6.12    7.29
 -13   7   3   -1.81    5.65
 -13   7   3   -3.90    6.08
 -13   7   2   42.99    8.38
 -13   7   1   21.42    7.00
 -13   7   0   -1.73    5.23
 -13   7  -1   15.24    5.78
 -13   7  -2   33.49    7.00
  13   7   3   15.06    7.15
 -13   7  -3    6.74    4.75
  13   7   4  178.66   16.90
 -13   7  -4  203.38   17.08
  13   7   5   44.86    9.51
  13   7   6   59.28   11.10
  13   7   7   -5.73    7.88
  13   7   8   -3.93    6.50
  13   7   9   96.83   13.94
  13   7  10    2.07    7.73
  13   7  11   84.56   13.41
  13   7  12   38.81   10.58
 -13   8  14   -5.66   10.58
 -13   8  13   15.51    9.46
 -13   8  12    5.11    7.71
 -13   8   9  237.79   20.29
 -13   8   8   98.04   12.73
 -13   8   7  114.87   15.80
 -13   8   7  100.29   13.02
 -13   8   6   53.73   11.52
 -13   8   6   52.26    9.72
 -13   8   5   13.41    7.18
 -13   8   5   -1.95    5.68
 -13   8   4    4.26    6.64
 -13   8   4    9.81    6.31
 -13   8   3    2.04    5.73
 -13   8   3   -1.97    5.55
 -13   8   2   27.42    7.81
 -13   8   2   13.92    6.79
 -13   8   1   18.88    6.93
 -13   8   0   36.52    8.15
 -13   8  -1   44.51    8.47
 -13   8  -2   -1.75    4.91
  13   8   2   -6.76    6.59
 -13   8  -3    3.46    4.67
  13   8   3   10.53    7.11
 -13   8  -4    1.74    4.69
  13   8   4    3.63    6.94
 -13   8  -5   35.49    8.02
  13   8   5   26.30    8.85
  13   8   6    1.94    6.76
  13   8   7  123.80   15.15
  13   8   8    4.10    7.67
  13   8   9  172.50   18.30
  13   8  10    2.15    7.69
 -13   9   9  127.05   15.27
 -13   9   8    4.18    6.52
 -13   9   7   52.39   10.62
 -13   9   6   -2.10    6.55
 -13   9   5    8.43    6.78
 -13   9   4   12.67    7.19
 -13   9   3    6.39    6.85
 -13   9   2   29.89    9.02
 -13   9   1   23.54    7.50
  13   9   3  190.01   17.71
  13   9   4   11.34    7.23
  13   9   5  123.15   15.31
  13   9   6   -6.04    8.59
  13   9   7   45.60   11.19
  13   9   8   -4.25    7.41
 -13  10   6   15.75    8.05
 -13  10   5   76.41   13.14
 -13  10   4   13.56    7.06
 -13  10   3   72.25   12.33
 -13  10   2   -2.27    6.61
 -13  10   1   -2.26    5.85
 -13  10   0   15.80    7.89
  13  10   5    6.05    8.75
 -14   0  20    3.64   12.03
 -14   0  19   -3.51   12.53
 -14   0  18    3.37   12.04
 -14   0  17   -3.23    9.41
 -14   0  16   -9.19   10.41
 -14   0  15   -2.90    9.32
 -14   0  14   -8.21   10.00
 -14   0  14   -3.03    9.15
 -14   0  13    2.57    7.76
 -14   0  13    5.80    8.46
 -14   0  12  307.53   27.38
 -14   0  12  335.60   26.40
 -14   0  11   -2.59    8.58
  14   0 -11    1.82    4.01
 -14   0  11   -2.26    7.48
 -14   0  10   95.53   14.52
  14   0 -10  109.76   12.35
 -14   0  10   74.00   12.32
 -14   0   9    2.30    6.95
 -14   0   9    8.06    8.88
  14   0  -9   -1.67    4.51
 -14   0   9   -5.93    7.39
 -14   0   8  384.38   28.69
 -14   0   8  408.71   27.31
 -14   0   7   -2.37    7.15
 -14   0   7   -2.02    6.29
  14   0  -7   -3.05    4.60
 -14   0   6  683.50   39.93
  14   0  -6  663.87   34.95
 -14   0   6  757.69   39.32
 -14   0   5   -3.52    6.86
  14   0  -5   -1.43    4.01
 -14   0   5   -1.75    5.46
 -14   0   5   -4.11    6.79
 -14   0   4   26.95    8.91
  14   0  -4   27.98    6.06
 -14   0   4   26.59    7.90
 -14   0   4   34.00    7.74
 -14   0   3    1.64    6.89
 -14   0   3   -6.00    5.23
 -14   0   3   -3.53    6.16
 -14   0   2   32.14    7.85
 -14   0   2   26.23    6.31
 -14   0   2    9.87    5.17
 -14   0   1   -1.28    4.98
 -14   0   1    2.87    6.43
 -14   0   1   -2.59    4.51
 -14   0   0  516.06   28.32
 -14   0   0  498.07   26.54
 -14   0   0  514.09   28.49
 -14   0   0  457.98   26.19
 -14   0   0  511.15   28.04
 -14   0  -1    1.23    4.16
 -14   0  -1    2.64    6.83
 -14   0  -1    9.61    6.24
 -14   0  -1    1.21    4.23
 -14   0  -2   58.61    7.77
  14   0   2   41.87   10.18
  14   0   3   -2.19    7.62
  14   0   4   42.97   10.43
  14   0   5    2.11    6.59
  14   0   6  330.72   24.77
  14   0   7    4.16    6.69
  14   0   8  420.91   28.50
  14   0   9    4.18    6.52
  14   0  10   67.38   11.61
  14   0  11   -2.01    6.66
  14   0  11   -2.13    6.86
  14   0  12   -6.20    7.73
  14   0  12    4.35    7.20
  14   0  13   -8.50    8.60
  14   0  13    2.22    7.75
  14   0  14   45.61   10.46
  14   0  14   61.32   11.75
  14   0  15    2.23    6.51
  14   0  15   -4.65    7.48
  14   0  16  114.48   16.02
  14   0  16  104.75   15.33
  14   0  17  -14.06   10.81
  14   0  17    2.43    8.90
 -14  -1  20   10.88   12.97
 -14   1  20   36.59   15.11
 -14  -1  19   62.92   17.50
 -14   1  19   28.22   12.37
 -14  -1  18   -6.73   11.74
 -14   1  18   -3.38    9.13
 -14   1  17    3.22   10.04
 -14  -1  17   12.90   11.25
 -14   1  16   42.84   12.54
 -14  -1  16   73.73   15.26
 -14   1  15  130.35   18.96
 -14   1  15  151.75   21.15
 -14  -1  15  134.16   18.39
 -14  -1  14  154.53   19.21
 -14   1  14  198.38   23.34
 -14   1  14  142.23   18.57
 -14  -1  13   -2.59    8.79
 -14   1  13   -5.16    8.29
 -14   1  13   11.82    9.77
 -14  -1  13   -2.83    8.53
  14   1 -12   26.56    7.32
  14  -1 -12   39.58    8.63
 -14  -1  12   50.89   11.84
 -14   1  12    9.69    8.08
 -14  -1  12   34.97   11.34
 -14   1  12   36.42   11.60
 -14   1  11  161.23   18.92
  14   1 -11  182.18   16.54
  14  -1 -11  198.74   17.19
 -14  -1  11  147.23   17.63
 -14   1  11  207.56   19.92
 -14  -1  11  190.67   20.41
 -14   1  10   52.45   11.91
 -14  -1  10   52.55   11.54
  14   1 -10   41.89    8.37
  14  -1 -10   32.87    7.96
 -14  -1  10   33.77    9.53
 -14   1  10   19.34    8.13
 -14  -1   9   22.52    8.42
 -14   1   9   14.08    7.32
 -14  -1   9    8.15    8.47
 -14   1   9    2.67    7.51
  14   1  -9    3.34    4.32
  14  -1  -9    8.26    5.15
 -14  -1   9   -1.96    7.64
 -14  -1   8   21.09    8.88
 -14   1   8   15.42    7.90
 -14  -1   8   30.67   10.93
 -14   1   8   27.66   10.20
  14   1  -8   17.59    5.61
  14  -1  -8   17.43    5.70
 -14  -1   8   16.38    7.26
 -14  -1   7   49.19    9.80
 -14   1   7   53.46   10.11
 -14  -1   7   57.58   11.91
 -14   1   7   44.82   10.50
  14   1  -7   36.71    7.19
  14  -1  -7   48.51    8.05
 -14  -1   7   18.62    7.00
 -14  -1   6  288.56   23.39
 -14   1   6  277.33   23.01
  14   1  -6  300.64   19.81
  14  -1  -6  273.61   19.14
 -14  -1   6  273.28   21.32
 -14   1   6  276.52   21.65
 -14   1   5  151.51   15.11
 -14  -1   5  150.61   14.70
  14   1  -5  107.06   11.84
  14  -1  -5  173.38   14.29
 -14  -1   5  147.34   15.77
 -14   1   5  128.82   15.24
 -14  -1   4  210.81   18.96
 -14  -1   4  209.56   16.96
 -14   1   4  199.87   16.82
  14   1  -4  175.12   14.92
  14  -1  -4  191.70   15.49
 -14  -1   4  232.18   19.22
 -14   1   4  180.03   17.46
 -14  -1   3  148.90   13.84
 -14   1   3  140.98   13.66
 -14  -1   3  161.98   15.48
 -14   1   3  172.99   15.85
 -14  -1   3  163.52   15.87
 -14   1   3  157.55   14.98
 -14  -1   2   -1.35    4.09
 -14   1   2    1.44    4.49
 -14  -1   2    4.71    5.34
 -14   1   2    4.42    6.19
 -14  -1   2    1.66    5.00
 -14   1   2    1.65    6.02
 -14  -1   1  203.33   15.06
 -14  -1   1  208.21   15.47
 -14   1   1  218.31   16.05
 -14  -1   1  220.08   17.25
 -14   1   1  208.88   16.70
 -14  -1   1  199.02   15.68
 -14   1   1  216.90   15.93
 -14   1   1  263.97   17.94
 -14  -1   1  230.06   17.40
 -14  -1   1  252.54   18.07
 -14   1   1  192.21   16.51
 -14   1   0    1.25    4.78
 -14  -1   0   -2.71    6.33
 -14   1   0   -6.59    6.41
 -14  -1   0    2.31    5.16
 -14  -1   0   -4.53    5.27
 -14   1   0   -6.09    6.50
 -14  -1   0    1.39    5.62
 -14   1   0    2.77    5.39
 -14  -1   0   -2.38    4.26
 -14   1   0   -1.30    4.18
  14  -1   1   31.34   10.62
 -14  -1  -1    8.53    4.95
 -14   1  -1   28.43    6.89
 -14  -1  -1    8.02    5.81
 -14   1  -1   10.45    6.37
 -14  -1  -1    9.52    5.72
 -14  -1  -1    3.45    3.49
 -14   1  -1   23.18    6.20
  14   1   2   28.38    9.79
 -14  -1  -2   12.14    4.58
 -14  -1  -2   17.36    4.55
 -14  -1  -2   13.69    6.52
  14  -1   3   55.16   11.93
  14   1   3    4.36    7.62
  14   1   4    4.30    7.69
  14  -1   4    4.34    6.77
  14  -1   5   14.94    8.66
  14   1   5   16.96    8.28
  14   1   6   48.01   11.29
  14  -1   6   53.10   10.87
  14   1   7    4.17    6.89
  14  -1   7   12.60    7.68
  14  -1   8   58.89   11.08
  14   1   8   61.91   11.23
  14  -1   9   -2.11    6.58
  14   1   9   18.63    7.57
  14   1  10   16.66    7.64
  14  -1  10   25.53    8.96
  14  -1  11   34.17    9.06
  14   1  11   24.18    8.08
  14   1  11   29.65    9.82
  14  -1  11   36.93    9.79
  14   1  12  138.83   15.92
  14  -1  12  161.03   17.04
  14   1  12  156.82   16.94
  14  -1  12  134.33   16.19
  14   1  13    8.52    8.47
  14  -1  13    6.36    8.27
  14   1  13   13.15    7.65
  14  -1  13   11.25    7.85
  14   1  14   39.29   10.98
  14  -1  14   36.94   10.11
  14   1  14   55.97   11.66
  14  -1  14   29.95    9.43
  14   1  15  -13.43   10.90
  14  -1  15   -6.68    9.67
  14   1  15   -4.57    9.26
  14  -1  15    4.72    8.23
  14   1  16  -13.77    9.12
  14  -1  16    2.28    7.76
  14   1  16   16.37    8.93
  14  -1  16   16.92   10.14
  14   1  17    2.35    9.51
  14  -1  17   -7.01    8.74
  14   1  17   -2.39    8.54
  14  -1  17    2.47    7.95
 -14  -2  20   54.10   17.20
 -14  -2  19   -3.48   11.82
 -14   2  19    7.07   10.68
 -14   2  18   20.34   11.83
 -14  -2  18   16.78   11.71
 -14   2  17   -3.23    9.42
 -14  -2  17   -3.22   10.64
 -14   2  16    9.20    8.62
 -14  -2  16   -3.08   10.99
 -14   2  15   14.55   10.15
 -14  -2  15    2.93   10.96
 -14   2  15   16.40   10.23
 -14   2  14   35.81   11.00
 -14   2  14   15.73   10.45
 -14  -2  14   41.73   12.68
 -14   2  13   -5.99    9.62
 -14   2  13    5.20    8.36
 -14  -2  13    7.86    8.66
 -14   2  12  223.73   21.28
 -14  -2  12  182.49   20.63
 -14  -2  12  150.10   18.33
  14   2 -12  216.57   18.06
  14  -2 -12  171.26   16.27
 -14   2  12  176.05   20.70
 -14  -2  11   59.77   12.34
 -14  -2  11   71.75   13.39
 -14   2  11   46.52   10.63
  14   2 -11   68.69   10.38
  14  -2 -11   48.10    8.71
 -14  -2  10  102.26   15.06
 -14  -2  10  138.53   16.01
  14   2 -10   97.13   11.74
  14  -2 -10  104.02   12.09
 -14   2  10   96.75   14.51
 -14  -2   9   49.43   10.37
 -14  -2   9   65.97   13.32
 -14   2   9   58.77   13.12
  14   2  -9   44.94    8.19
  14  -2  -9   52.11    8.69
 -14  -2   9   52.47   10.65
 -14   2   9   40.68   10.70
 -14  -2   8   16.43    6.98
 -14  -2   8   25.90   11.06
 -14   2   8   15.08    9.19
  14   2  -8    4.77    4.48
  14  -2  -8    6.25    4.05
 -14  -2   8   10.25    6.97
 -14   2   8   11.26    7.24
  14   2  -8   10.71    4.35
 -14  -2   7   18.47    7.19
 -14  -2   7    9.74    7.61
 -14   2   7   14.15    8.24
  14   2  -7    6.09    3.79
  14  -2  -7   25.47    6.31
 -14  -2   7   23.00    7.19
 -14  -2   6   -4.63    6.13
 -14  -2   6   -1.79    5.74
 -14   2   6   -1.97    5.74
 -14  -2   6    6.83    7.31
 -14   2   6   -2.21    6.20
  14   2  -6    4.41    3.80
  14  -2  -6   -1.45    4.08
 -14  -2   5  199.92   17.05
 -14  -2   5  166.04   13.47
 -14   2   5  184.12   16.91
 -14  -2   5  177.79   18.05
 -14   2   5  199.45   18.46
  14   2  -5  217.34   16.06
  14  -2  -5  182.63   14.98
 -14  -2   4  133.77   13.59
 -14  -2   4  155.93   13.02
 -14   2   4  131.84   14.28
 -14  -2   4  188.65   18.06
  14   2  -4  167.96   14.02
  14  -2  -4  148.15   13.31
 -14  -2   4  154.71   16.07
 -14   2   4  135.64   15.22
 -14  -2   3  117.23   13.50
 -14   2   3   84.57   10.98
 -14  -2   3  103.32   11.04
 -14  -2   3   58.11   10.56
 -14   2   3   90.93   12.02
 -14  -2   3   84.04   10.13
 -14  -2   2  409.45   25.11
 -14  -2   2  367.85   22.52
 -14   2   2  370.41   23.26
 -14  -2   2  337.72   23.66
 -14   2   2  325.60   23.40
 -14  -2   2  418.69   22.81
 -14  -2   1  276.82   18.56
 -14  -2   1  325.93   21.07
 -14  -2   1  265.79   17.91
 -14   2   1  261.82   18.71
 -14  -2   1  262.95   19.66
 -14   2   1  270.88   19.84
 -14   2   1  258.21   18.59
 -14  -2   1  308.32   20.19
 -14  -2   0   90.15    9.78
 -14   2   0   93.48   10.84
 -14   2   0  121.36   11.50
 -14  -2   0  106.63   11.00
 -14  -2   0  129.10   12.87
 -14   2   0  108.64   11.83
 -14  -2   0  112.01   12.20
 -14  -2   0   94.53   11.35
 -14   2   0   86.13   11.12
 -14  -2  -1  190.09   15.61
  14  -2   1  161.97   17.97
 -14  -2  -1  182.35   14.37
 -14   2  -1  198.17   14.91
 -14  -2  -1  164.86   13.13
 -14   2  -1  216.08   15.80
 -14  -2  -2   19.59    5.07
 -14  -2  -2   14.87    6.28
 -14  -2  -3   47.25    8.71
  14   2   3   41.26   10.77
  14   2   4  234.87   21.65
  14  -2   4  313.09   24.33
  14  -2   5   10.89    7.59
  14   2   5    4.24    6.19
  14   2   6  175.60   18.29
  14  -2   6  197.42   18.71
  14   2   7  139.65   16.17
  14  -2   7  141.46   16.25
  14  -2   8   25.50    8.79
  14   2   8   16.50    7.74
  14  -2   9   49.47   10.51
  14   2   9   59.92   11.32
  14  -2  10   88.88   12.92
  14   2  10   66.37   11.85
  14   2  11   12.63    7.71
  14  -2  11    8.80    7.67
  14   2  12   24.93    8.89
  14  -2  12   12.37    7.90
  14   2  12   19.10    7.79
  14  -2  12   22.41    8.76
  14   2  13   -2.13    8.15
  14  -2  13   -2.12    8.24
  14   2  13   -2.16    6.74
  14  -2  13   -4.58    6.91
  14   2  14   -2.19    7.24
  14  -2  14   -8.67    8.61
  14   2  14   -2.20    6.17
  14  -2  14   -2.34    7.53
  14   2  15   -2.24    6.99
  14  -2  15   -4.44    6.70
  14   2  15    6.72    7.19
  14  -2  15    4.80    6.47
  14   2  16   -2.30    7.16
  14  -2  16   -4.55    7.09
  14   2  16   -6.85    7.96
  14  -2  16    2.46    7.41
  14   2  17   -2.36    8.81
  14  -2  17    2.33    7.93
 -14   3  19   14.19   11.74
 -14   3  18   -3.40   10.92
 -14   3  17   93.94   17.06
 -14   3  16  117.36   18.32
 -14   3  15   93.89   16.24
 -14   3  15   66.46   15.13
 -14   3  14   52.83   13.17
 -14   3  14   73.24   16.60
 -14   3  13   87.89   16.19
 -14   3  13   89.73   14.92
  14  -3 -13  102.95   12.70
 -14   3  12   -7.52    9.16
  14   3 -12    3.70    5.00
  14  -3 -12    3.65    5.13
 -14   3  12   11.53    9.26
  14   3 -11   17.81    6.40
  14  -3 -11   22.73    6.58
 -14   3  11   27.38   10.04
  14   3 -10   37.64    7.99
  14  -3 -10   31.73    7.12
 -14   3  10   41.49   10.95
 -14   3   9   50.95   11.70
  14   3  -9   29.49    6.99
  14  -3  -9   38.40    7.59
 -14   3   9   34.32   10.88
 -14   3   8  278.15   23.46
 -14  -3   8  215.28   22.61
 -14   3   8  274.88   24.46
  14   3  -8  288.20   20.04
  14  -3  -8  278.72   19.58
 -14  -3   7    4.95    8.41
 -14   3   7    2.37    7.63
  14   3  -7   13.61    5.14
  14  -3  -7    8.86    4.61
 -14   3   7    2.17    6.76
 -14   3   6  229.54   19.80
  14   3  -6  221.12   16.85
  14  -3  -6  202.56   16.22
 -14  -3   6  259.78   22.27
 -14   3   6  229.02   20.75
 -14  -3   5    9.66    6.46
 -14   3   5   11.37    6.61
  14   3  -5    2.84    3.85
  14  -3  -5    8.47    4.93
 -14  -3   5    6.50    6.10
 -14   3   5   12.46    7.06
 -14  -3   4    3.90    7.12
 -14   3   4    5.34    5.73
 -14  -3   4    1.25    5.61
 -14  -3   4   10.07    7.02
 -14   3   4    5.80    7.07
 -14  -3   3    1.75    6.68
 -14   3   3   -6.67    6.76
 -14  -3   3   -3.89    7.01
 -14  -3   3   -3.74    7.84
 -14   3   2  177.23   15.67
 -14  -3   2  192.70   15.81
 -14  -3   2  149.82   15.41
 -14   3   2  186.80   16.54
 -14   3   1   49.66    8.50
 -14  -3   1   58.69    9.60
 -14   3   1   43.68    8.47
 -14  -3   1   60.96    9.84
 -14  -3   1   44.15    9.18
 -14   3   1   64.22    9.47
 -14  -3   0  435.34   25.59
 -14  -3   0  428.01   26.04
 -14   3   0  445.55   26.49
 -14   3   0  442.16   25.66
 -14  -3   0  405.18   24.29
 -14   3   0  423.86   24.67
 -14   3   0  449.86   25.22
  14  -3   1  340.34   26.57
 -14  -3  -1  348.91   22.13
 -14  -3  -1  369.10   23.14
 -14   3  -1  396.14   23.92
 -14   3  -1  358.89   22.55
 -14  -3  -1  353.79   21.71
 -14   3  -1  338.03   21.54
 -14  -3  -2  250.80   17.82
  14  -3   2  217.25   20.94
 -14   3  -2  209.52   16.68
 -14  -3  -3   82.42   10.79
  14  -3   3   88.68   13.82
 -14  -3  -4   59.42   10.71
  14  -3   4   49.22   11.11
  14   3   5    4.30    6.70
  14  -3   5   11.01    7.48
  14  -3   6  100.85   13.76
  14   3   6   90.97   13.41
  14  -3   7   65.64   12.44
  14   3   7   80.16   12.56
  14  -3   8    4.38    7.03
  14   3   8    2.08    6.06
  14  -3   9    2.19    7.46
  14   3   9    2.08    6.68
  14  -3  10  139.22   16.16
  14   3  10  122.62   15.19
  14  -3  11    2.24    7.61
  14   3  11    4.17    6.70
  14  -3  12   -4.11    9.33
  14   3  12    2.08    8.10
  14   3  12    6.28    7.29
  14  -3  12    4.56    6.89
  14   3  13   -6.41    7.98
  14  -3  13    2.11    6.96
  14  -3  13    2.33    7.26
  14   3  14   -4.39    8.72
  14  -3  14    2.16    8.08
  14  -3  14    2.38    6.95
  14   3  15   -2.25    7.84
  14  -3  15   -2.21    8.45
  14  -3  15   -2.44    7.36
  14   3  16   18.41    8.81
  14  -3  16   36.26   10.17
  14  -3  16    7.48    8.50
 -14   4  18   16.99   11.86
 -14   4  17   29.27   12.72
 -14   4  16   24.86   11.15
 -14   4  16   41.75   15.13
 -14   4  15    3.36    9.08
 -14   4  15    8.87    8.92
  14  -4 -14   38.79    8.49
 -14   4  14   22.51    9.87
 -14   4  14   29.04   12.11
  14   4 -13   39.40    8.44
  14  -4 -13   63.17   10.38
 -14   4  13   52.34   13.46
 -14   4  13   42.88   11.93
  14   4 -12   21.67    7.10
  14  -4 -12   32.00    7.26
 -14   4  12   23.46    9.47
  14   4 -11  165.30   15.78
  14  -4 -11  209.49   17.28
 -14   4  11  198.14   21.54
  14   4 -10    1.67    4.51
  14  -4 -10   -1.63    3.82
 -14   4  10    2.65    7.16
  14   4  -9   78.76   10.18
  14  -4  -9   62.46    9.05
 -14   4   9   82.50   13.73
 -14  -4   8   63.79   13.42
 -14   4   8   58.48   12.69
  14   4  -8   52.43    8.40
  14  -4  -8   55.54    8.51
 -14   4   8   68.53   12.10
 -14  -4   7   15.05    8.53
 -14   4   7   11.95    7.46
  14   4  -7    8.95    4.67
  14  -4  -7   13.11    5.22
 -14   4   7   11.16    6.52
 -14  -4   6    7.09    7.37
 -14   4   6    2.25    7.22
  14   4  -6    1.45    4.06
  14  -4  -6   -1.42    4.44
 -14   4   6   -2.10    5.90
 -14  -4   5   42.11    9.67
 -14   4   5   21.05    8.10
  14   4  -5   25.46    6.31
  14  -4  -5   33.66    6.98
 -14   4   5   23.78    7.47
 -14  -4   4   47.61   10.20
 -14   4   4   66.93   10.97
 -14   4   4   83.65   11.54
 -14  -4   3    3.85    7.36
 -14   4   3    5.53    6.58
 -14   4   3    8.80    6.44
 -14  -4   2  149.36   15.43
 -14   4   2  184.04   16.37
 -14   4   2  179.60   15.82
 -14  -4   1   18.53    6.83
 -14   4   1   11.51    6.16
 -14   4   1    3.20    5.73
 -14  -4   0  173.65   15.76
 -14   4   0  225.87   17.23
 -14   4   0  190.43   15.81
 -14   4   0  174.06   14.51
  14  -4   1   54.41   12.14
 -14  -4  -1   50.78    9.15
 -14   4  -1   65.77    9.61
 -14   4  -1   73.96   10.20
 -14   4  -2   61.11    8.98
  14  -4   2   61.21   12.36
  14  -4   3   60.32   11.91
  14  -4   4    4.62    7.42
  14  -4   5   99.97   14.44
  14   4   5   88.81   14.10
  14  -4   6    2.24    6.76
  14   4   6    2.16    6.53
  14  -4   7    6.70    9.38
  14  -4   8   31.25    9.27
  14  -4   9    8.95    8.19
  14  -4  10   90.13   14.18
  14  -4  11   50.49   11.59
  14  -4  12   -4.67    9.10
  14  -4  13    2.37    7.61
  14  -4  14   87.22   14.42
  14  -4  14   51.41   11.77
  14   4  14   54.60   11.99
  14  -4  15   -4.95    8.84
  14   4  15    2.24    7.81
  14  -4  15   -6.59    8.03
  14   4  16   27.54    9.49
  14  -4  16   15.76    8.80
 -14   5  17   -3.26    9.52
 -14   5  16    6.24    8.78
 -14   5  16   17.56   11.94
 -14   5  15   10.20    9.94
 -14   5  15   26.83   11.17
  14   5 -15   25.15    7.11
 -14   5  14   -2.85    8.31
 -14   5  14   -3.27    8.83
  14   5 -14   -3.74    5.82
 -14   5  13    6.45    6.91
  14   5 -13   -1.80    4.66
 -14   5  13    3.13   10.04
 -14   5  12  101.50   17.20
  14   5 -12  111.44   12.85
 -14   5  12  107.99   14.50
  14   5 -11   25.13    6.97
 -14   5  11   31.32   11.78
  14   5 -10  213.25   17.13
 -14   5  10  159.99   19.48
  14   5  -9   34.16    7.46
  14  -5  -9   42.55    7.49
 -14   5   9   23.17    8.83
  14   5  -8   15.07    5.27
  14  -5  -8   14.70    5.75
 -14   5   8    9.77    7.39
 -14  -5   7   10.12    8.82
  14   5  -7    2.92    3.61
  14  -5  -7    2.87    3.71
 -14   5   7   13.83    6.96
 -14  -5   6    9.57    7.22
 -14   5   6   -4.54    7.50
  14   5  -6   -1.42    4.14
  14  -5  -6    5.63    3.95
 -14   5   6   -2.19    5.66
 -14  -5   5   74.42   12.67
 -14   5   5   63.91   11.29
 -14   5   5   74.67   11.81
 -14  -5   4  201.11   18.65
 -14   5   4  178.41   17.70
 -14   5   4  154.24   16.26
 -14  -5   3   71.32   12.08
 -14   5   3   75.25   11.60
 -14   5   3   92.90   12.09
 -14  -5   2  106.05   13.43
 -14   5   2  113.52   13.30
 -14   5   2  105.68   12.70
 -14   5   1    3.37    5.87
 -14  -5   1    1.75    6.54
 -14   5   1   -3.39    6.06
 -14  -5   0   54.37    9.55
 -14   5   0   53.25    9.52
 -14   5   0   57.86    9.31
  14  -5   1   11.99    9.53
 -14  -5  -1    7.86    6.25
 -14   5  -1   -1.57    5.21
 -14   5  -1    9.79    5.54
  14  -5   2   19.25    8.48
 -14  -5  -2   38.31    7.65
 -14   5  -2   36.28    7.58
 -14   5  -2   42.76    8.10
  14  -5   3   -4.77    8.72
 -14   5  -3   -1.69    4.37
  14  -5   4   30.58    9.59
  14  -5   5   72.53   12.63
  14  -5   6  154.57   17.62
  14  -5   7   85.09   13.74
  14  -5   8    2.30    6.70
  14  -5   9    2.30    7.16
  14  -5  10   46.17   11.21
  14  -5  11   53.84   11.11
  14  -5  12  168.38   18.68
  14  -5  13   67.57   13.11
  14  -5  14   24.57    9.22
 -14   6  16   -6.26   10.91
 -14   6  15   44.67   14.19
 -14   6  15   12.00    9.67
 -14   6  14   -2.36    7.79
 -14   6  14   -6.63   10.33
 -14   6  14    2.88    7.77
 -14   6  13   90.46   14.16
 -14   6  13   66.88   15.35
 -14   6  12  109.70   17.71
 -14   6  11    2.92    8.19
 -14   6  10   19.48    8.43
 -14   6   9   90.29   14.83
 -14   6   8    2.51    7.83
 -14   6   7   93.12   13.81
 -14   6   6   43.24   10.15
 -14   6   5    6.50    6.96
 -14   6   5    3.26    4.76
 -14   6   4   65.54   11.12
 -14   6   4   79.44   10.94
 -14   6   3   52.78   10.16
 -14   6   2   -3.75    7.00
 -14   6   1  158.90   15.77
 -14   6   0   12.30    5.66
 -14   6  -1    3.45    5.03
  14  -6   2  122.99   16.50
 -14   6  -2  123.88   13.37
  14  -6   3   17.26    8.81
 -14   6  -3    3.49    4.52
  14  -6   4  236.17   22.43
 -14   6  -4  255.63   19.69
  14  -6   5   64.80   12.04
  14  -6   6    2.39    6.98
  14  -6   7   25.94    9.23
  14  -6   8    4.71    7.34
  14  -6   9   47.04   11.31
  14   6   9   60.71   11.06
  14  -6  10    2.38    8.08
  14   6  10   12.04    7.66
  14  -6  11   14.32    8.54
  14   6  11   16.40    7.34
  14  -6  12   -4.84    9.61
  14   6  12    6.27    7.47
  14  -6  13   32.00   10.72
  14   6  13   23.39    8.66
  14  -6  14    2.50    8.49
 -14   7  15   34.68   13.54
 -14   7  15   20.40    9.36
 -14   7  14   16.80   11.72
 -14   7  14   14.52    9.61
 -14   7  14    7.53    8.54
 -14   7  13   29.09   13.10
 -14   7  13    9.92    8.87
 -14   7  12   24.85   11.39
 -14   7  11   53.61   13.86
 -14   7  10   -2.85    7.70
 -14   7   9  109.10   16.36
 -14   7   8   -2.60    7.59
 -14   7   7    4.97    6.98
 -14   7   6   14.31    6.70
 -14   7   6   11.80    7.14
 -14   7   5   63.30   10.37
 -14   7   5   54.10   10.74
 -14   7   4   20.13    7.18
 -14   7   4   25.84    8.09
 -14   7   3   11.10    5.77
 -14   7   3   -2.06    5.79
 -14   7   2   11.87    6.55
 -14   7   1   -1.91    5.15
 -14   7   0   53.69    9.43
 -14   7  -1   30.80    7.68
 -14   7  -2   30.43    7.46
 -14   7  -3   46.62    8.99
 -14   7  -4   32.92    7.63
 -14   7  -5   50.74    9.32
  14   7   6   34.04    9.28
  14   7   7   44.77   10.18
  14   7   8    8.00    7.64
  14   7   9    2.05    7.14
  14   7  10   16.77    8.51
  14   7  11    4.28    7.27
 -14   8  12   -2.61    9.74
 -14   8   8   -2.67    6.91
 -14   8   7   10.21    8.44
 -14   8   7   -3.90    7.30
 -14   8   6    2.44    6.86
 -14   8   6    3.93    6.13
 -14   8   5   11.72    7.75
 -14   8   5    1.98    5.56
 -14   8   4    8.98    7.00
 -14   8   4   -2.00    6.22
 -14   8   3  109.80   14.39
 -14   8   3  136.78   15.32
 -14   8   2   22.77    7.97
 -14   8   2   34.47    8.71
 -14   8   1   17.97    6.63
 -14   8   0    1.93    5.22
 -14   8  -1    1.88    4.65
 -14   8  -3  103.35   12.65
 -14   8  -4   20.41    6.82
 -14   8  -5  148.25   15.60
  14   8   5  139.57   15.73
 -14   8  -6    1.92    4.96
  14   8   6   -1.97    6.33
  14   8   7   36.44   10.78
  14   8   8    2.08    7.05
  14   8   9   25.52    9.56
 -14   9   7   -6.32    8.05
 -14   9   6   17.00    7.61
 -14   9   5   23.47    8.36
 -14   9   4   92.18   13.23
 -14   9   3    2.16    5.84
 -14   9   2   17.36    7.59
 -14   9   1   74.04   12.39
  14   9   4   38.35   10.22
  14   9   5   -7.91    8.73
  14   9   6   10.18    8.10
 -15   0  19   -3.58   12.49
 -15   0  18   17.24   12.90
 -15   0  17   -3.30    9.62
 -15   0  16   47.21   13.08
 -15   0  15   -2.98    8.68
 -15   0  14   78.74   15.17
 -15   0  14   94.86   16.98
  15   0 -13   -2.02    4.98
 -15   0  13    2.65    8.53
 -15   0  13   -3.02    9.42
  15   0 -12  372.07   26.00
 -15   0  12  384.40   31.15
 -15   0  12  384.97   29.25
 -15   0  11    2.72    7.93
  15   0 -11   -3.75    5.27
 -15   0  11   -7.03    7.53
 -15   0  10  100.36   15.41
 -15   0  10   61.62   11.73
  15   0 -10   92.00   11.69
 -15   0   9   -4.84    7.06
 -15   0   9  -14.47    7.39
  15   0  -9   -1.74    4.88
 -15   0   9    8.52    8.57
 -15   0   8   96.48   15.58
  15   0  -8  111.46   12.12
 -15   0   8  136.59   16.07
 -15   0   7   -7.54    8.08
  15   0  -7   -1.60    4.15
 -15   0   7   -2.13    6.20
 -15   0   6   28.13    8.68
  15   0  -6   38.88    7.20
 -15   0   5   -2.18    6.14
  15   0  -5   -3.04    5.16
 -15   0   5   11.14    6.14
 -15   0   4   62.74   11.01
 -15   0   4   86.02   11.20
 -15   0   3   -1.89    5.88
 -15   0   3   -4.79    5.71
 -15   0   2   35.45    7.88
 -15   0   2   23.77    6.31
 -15   0   1   -1.68    5.85
 -15   0   1   -2.79    4.49
 -15   0   0   30.95    7.67
 -15   0   0   20.10    6.24
 -15   0  -1   -2.62    3.82
  15   0   2  256.39   23.28
 -15   0  -2  297.01   18.96
  15   0   3    4.74    7.39
  15   0   4   67.95   12.61
  15   0   5   -2.31    6.49
  15   0   6   48.26   10.73
  15   0   7    2.29    7.58
  15   0   8   20.39    8.31
  15   0   9  -11.45    7.99
  15   0  10  343.81   26.39
  15   0  11   -2.30    7.81
  15   0  12  179.62   18.80
  15   0  13   -2.22    7.94
  15   0  13   -7.08    8.23
  15   0  14    4.55    7.32
  15   0  14    7.20    7.48
  15   0  15   -9.32    9.78
  15   0  15    2.44    8.28
  15   0  16   28.53   10.22
  15   0  16   44.79   12.02
 -15  -1  19  -14.26   13.89
 -15   1  19    3.61   10.89
 -15  -1  18   30.93   13.42
 -15   1  18   17.32   12.10
 -15   1  17   52.95   14.66
 -15  -1  17   32.98   13.68
 -15   1  16    3.14    8.12
 -15  -1  16    3.14    9.17
 -15   1  15   32.79   11.89
 -15   1  15   40.27   15.51
 -15  -1  15   20.93   11.70
 -15  -1  14  124.59   18.35
 -15   1  14  141.21   18.83
 -15   1  14  125.90   19.68
 -15  -1  14  123.03   18.49
  15   1 -13   14.15    6.71
  15  -1 -13   20.13    7.38
 -15  -1  13   29.31   10.81
 -15  -1  13   11.80    9.77
 -15   1  13    3.08   10.49
 -15   1  13   18.69   10.00
  15   1 -12   56.52    9.99
  15  -1 -12   81.34   11.43
 -15   1  12   64.38   13.87
 -15  -1  12   52.48   12.97
 -15   1  12   62.89   12.91
 -15  -1  12   81.51   15.35
 -15   1  11    5.54    7.78
  15   1 -11    3.75    5.07
  15  -1 -11    1.86    5.03
 -15  -1  11    7.03    8.37
 -15   1  11   -7.12    6.92
 -15  -1  11    5.33    8.04
 -15  -1  10   25.13    9.99
 -15   1  10   13.10    8.17
 -15  -1  10    4.38    7.63
 -15   1  10    4.49    7.00
  15   1 -10    3.62    5.47
  15  -1 -10    5.38    4.84
 -15  -1   9   18.98    9.27
 -15   1   9   17.32    8.44
 -15  -1   9   18.35    7.98
  15   1  -9   20.80    6.65
  15  -1  -9   20.60    6.31
 -15  -1   9   17.23   10.52
 -15   1   9   22.58    9.86
 -15  -1   8  164.94   17.12
 -15   1   8  166.69   17.83
 -15  -1   8  119.89   14.21
  15   1  -8  148.62   14.47
  15  -1  -8  117.42   12.88
 -15  -1   8  111.03   16.60
 -15   1   8  117.11   16.72
 -15  -1   7   71.14   12.86
 -15   1   7   70.01   12.95
  15   1  -7   45.08    8.12
  15  -1  -7   75.00    9.94
 -15  -1   7   54.13   10.60
 -15   1   7   67.36   11.68
 -15  -1   6   33.24    9.27
 -15   1   6   16.37    8.76
  15   1  -6   14.04    5.05
  15  -1  -6   12.40    5.30
 -15  -1   6   29.28    7.78
 -15   1   6    8.12    6.35
 -15  -1   5   19.85    8.08
 -15   1   5    8.70    6.60
  15   1  -5   18.27    5.72
  15  -1  -5   21.24    5.82
 -15  -1   5   18.24    6.84
 -15   1   5   18.86    6.76
 -15  -1   4  153.23   16.44
 -15   1   4  169.78   16.89
 -15  -1   4  167.69   15.55
 -15   1   4  181.53   16.38
 -15   1   3   -1.89    6.92
 -15   1   3   -1.64    5.11
 -15  -1   3   -1.57    5.61
 -15  -1   2  156.73   15.14
 -15   1   2  140.33   14.52
 -15  -1   2  176.58   14.71
 -15   1   2  142.45   13.88
 -15  -1   1   -3.38    5.89
 -15   1   1   -5.06    6.03
 -15  -1   1   -1.36    4.38
 -15   1   1    1.46    4.83
 -15  -1   0   -1.63    5.07
 -15   1   0   -3.28    5.28
 -15  -1   0   -1.29    4.14
 -15   1   0   -1.40    4.23
 -15  -1  -1   42.35    6.84
 -15   1  -1   48.44    8.08
 -15  -1  -2    4.97    3.90
 -15   1  -2   21.05    6.93
  15  -1   3   -9.61    9.36
  15   1   3   -2.35    6.86
  15   1   4   70.33   13.00
  15  -1   4   63.83   12.03
  15   1   5   71.63   13.30
  15  -1   5   95.40   13.99
  15  -1   6   -2.32    6.52
  15   1   6  -13.82    7.62
  15   1   7   29.54    9.57
  15  -1   7   18.48    8.49
  15   1   8   58.99   11.88
  15  -1   8   48.42   10.79
  15   1   9   -2.27    6.63
  15  -1   9  -11.52    8.43
  15  -1  10    2.31    6.74
  15   1  10    9.09    6.86
  15   1  11   38.77   10.43
  15  -1  11   27.82    9.46
  15   1  12   13.86    7.88
  15  -1  12   30.59    9.38
  15  -1  13   11.10    7.94
  15   1  13    8.92    7.97
  15   1  13    4.69    7.32
  15  -1  13   11.97    7.23
  15   1  14   98.14   14.81
  15  -1  14   99.99   14.64
  15   1  14  118.96   15.51
  15  -1  14  107.08   15.38
  15   1  15   14.01    8.76
  15  -1  15   18.59    9.44
  15   1  15   21.79    9.46
  15  -1  15   27.22    9.47
  15   1  16   28.68   11.14
  15  -1  16   52.34   12.55
  15   1  16   51.64   12.38
  15  -1  16   60.36   12.50
  15   1  17   34.93   10.36
 -15  -2  19   10.64   12.05
 -15   2  18   31.24   13.27
 -15  -2  18   13.66   12.22
 -15   2  17   -3.32    9.32
 -15  -2  17   -3.28   12.00
 -15   2  16   34.72   13.08
 -15  -2  16   40.86   13.70
 -15   2  15   13.65    9.63
 -15   2  15   30.04   10.76
 -15  -2  15   35.98   13.04
  15   2 -14   56.05   10.68
  15  -2 -14   20.64    7.30
 -15   2  14   37.00   11.38
 -15   2  14   32.74   13.07
 -15  -2  14   54.14   13.56
  15   2 -13   50.11    9.79
  15  -2 -13   45.70    9.58
 -15   2  13   40.54   13.64
 -15   2  13   40.44   12.38
 -15  -2  13   54.17   13.45
 -15  -2  13   80.55   14.45
 -15   2  12   47.45   12.55
  15   2 -12   34.82    9.07
  15  -2 -12   55.39   10.12
 -15  -2  12   63.17   13.02
 -15  -2  12   65.42   13.86
 -15   2  12   30.67   10.29
 -15   2  11  107.04   16.67
  15   2 -11  104.37   13.07
  15  -2 -11   97.34   12.25
 -15  -2  11   92.14   14.70
 -15  -2  11  114.06   16.80
 -15   2  10   -2.67    8.06
 -15  -2  10    4.88    8.72
  15   2 -10    1.80    4.85
  15  -2 -10    1.77    5.51
 -15  -2   9   32.01   10.92
 -15   2   9   25.38    9.88
  15   2  -9   36.36    8.16
  15  -2  -9   23.79    6.70
 -15  -2   9   36.91   10.06
 -15   2   9   20.17    8.39
 -15  -2   8    2.75    8.82
 -15   2   8   -5.32    9.26
  15   2  -8    4.98    4.48
  15  -2  -8    3.26    4.59
 -15  -2   8    2.17    6.76
 -15   2   8    2.36    6.37
 -15  -2   7   -2.58    8.77
 -15   2   7   -5.00    8.50
  15   2  -7    6.42    5.16
  15  -2  -7    3.16    4.09
 -15  -2   7   -4.06    6.72
 -15   2   7    2.22    6.47
 -15  -2   6   33.84    9.83
 -15   2   6   25.74    8.61
  15   2  -6   21.87    6.39
  15  -2  -6   29.25    6.85
 -15  -2   6   30.52    8.33
 -15   2   6   24.90    7.81
 -15  -2   5    2.25    5.54
 -15   2   5    4.38    6.83
  15   2  -5   -1.52    4.28
  15  -2  -5    1.51    3.72
 -15  -2   5    1.78    5.56
 -15   2   5   -1.94    5.25
 -15  -2   4   58.34   10.85
 -15   2   4   79.53   12.07
 -15  -2   4   49.99    9.23
 -15   2   4   56.14    9.69
 -15  -2   3  151.70   16.08
 -15   2   3  129.74   14.79
 -15   2   3  127.74   13.89
 -15  -2   3  132.44   13.22
 -15  -2   2  165.20   16.00
 -15   2   2  147.80   15.20
 -15  -2   2  160.42   14.25
 -15   2   2  152.03   14.61
 -15  -2   1   37.57    8.59
 -15   2   1   56.52    9.96
 -15  -2   1   46.74    8.04
 -15   2   1   57.74    9.25
 -15  -2   0  180.61   15.82
 -15   2   0  161.64   15.27
 -15  -2   0  168.33   13.73
 -15   2   0  159.45   14.41
 -15  -2  -1   -1.61    5.02
 -15   2  -1    6.63    5.78
 -15  -2  -1   -1.20    4.58
 -15   2  -1    4.40    4.43
  15  -2   2  122.09   16.74
 -15  -2  -2  130.53   11.49
 -15   2  -2  122.43   12.55
  15  -2   3    7.28    7.56
 -15  -2  -3   -1.19    3.36
  15  -2   4   28.62   10.86
  15   2   4   11.63    8.52
  15   2   5  143.33   17.30
  15  -2   5  151.85   17.71
  15  -2   6   51.40   11.06
  15   2   6   48.37   11.20
  15   2   7    4.55    6.63
  15  -2   7    2.33    7.26
  15   2   8  174.66   18.51
  15  -2   8  169.71   18.57
  15   2   9    4.53    6.37
  15  -2   9   -4.65    7.47
  15  -2  10    2.35    6.85
  15   2  10    2.27    6.84
  15  -2  11   25.93    8.90
  15   2  11   52.23   11.54
  15   2  12   -4.60    8.96
  15  -2  12   -2.39    7.46
  15   2  13   -2.31    7.63
  15  -2  13   -2.42    7.54
  15  -2  14    2.27    7.06
  15   2  14   -2.29    7.13
  15   2  14   -2.34    7.06
  15  -2  14    4.91    7.66
  15   2  15   -2.34    8.37
  15  -2  15    2.32    7.88
  15   2  15   11.86    8.67
  15  -2  15   -2.51    7.58
  15   2  16   79.02   13.87
  15  -2  16   49.79   11.73
  15   2  16   55.48   11.92
 -15   3  18   45.30   14.20
 -15   3  17   -6.66   10.38
 -15   3  16    6.36    9.28
 -15   3  16   14.28   12.44
  15  -3 -15   -2.10    6.56
 -15   3  15    3.45   10.42
 -15   3  15    9.08    8.51
  15   3 -14    2.04    5.96
  15  -3 -14   10.13    6.12
 -15   3  14    8.63    9.51
  15   3 -13    1.97    5.75
  15  -3 -13    5.86    6.09
 -15   3  13    2.73    8.26
 -15   3  13    6.34    8.55
 -15   3  12   60.35   14.47
  15   3 -12   51.41    9.51
  15  -3 -12   71.28   10.76
 -15   3  12   67.64   13.31
  15   3 -11   82.77   11.78
  15  -3 -11   90.21   11.74
 -15   3  11   91.54   15.90
  15   3 -10   14.19    6.04
  15  -3 -10    6.95    5.08
 -15   3  10   13.57    8.47
 -15  -3   9    5.89    7.63
 -15   3   9   25.44   10.11
  15   3  -9   13.69    5.68
  15  -3  -9   11.65    5.82
 -15   3   9   17.95    8.25
 -15  -3   8   50.13   12.92
 -15   3   8   42.66   11.65
  15   3  -8   36.26    7.83
  15  -3  -8   32.23    7.02
 -15   3   8   62.89   12.01
 -15  -3   7   26.25    9.85
 -15   3   7   25.13    9.22
  15   3  -7   22.34    6.86
  15  -3  -7   26.60    6.28
 -15   3   7   22.71    8.16
 -15  -3   6   49.29   11.29
 -15   3   6   51.90   10.97
  15   3  -6   45.00    7.96
  15  -3  -6   41.29    7.67
 -15   3   6   23.52    8.29
 -15  -3   5   25.30    9.88
 -15   3   5   28.75    8.69
  15   3  -5   31.87    7.08
  15  -3  -5   33.13    7.22
 -15   3   5   31.96    8.16
 -15  -3   4  201.60   19.58
 -15   3   4  223.17   19.78
 -15   3   4  220.16   18.74
 -15   3   3  159.31   16.42
 -15  -3   3  149.55   16.14
 -15   3   3  168.90   15.93
 -15   3   2   76.99   11.50
 -15  -3   2   67.03   11.21
 -15   3   2   97.26   11.80
 -15  -3   1  221.08   18.58
 -15   3   1  236.93   19.25
 -15   3   1  232.20   18.12
 -15  -3   0   -6.68    6.88
 -15   3   0    5.08    5.90
 -15   3   0   -1.57    5.48
 -15   3  -1   26.80    7.33
 -15  -3  -1   29.27    7.45
 -15   3  -1   26.38    6.80
  15  -3   2  176.59   19.23
 -15   3  -2  194.50   16.03
  15  -3   3  158.14   18.39
  15  -3   4  206.88   20.74
  15   3   5  148.30   17.39
  15  -3   5  176.66   18.95
  15   3   6    6.91    7.62
  15  -3   6    2.38    6.70
  15   3   7    9.17    7.38
  15  -3   7   11.87    8.07
  15   3   8   50.31   11.26
  15  -3   8   47.38   11.21
  15   3   9    9.02    8.25
  15  -3   9    7.10    7.83
  15  -3  10   -4.78    8.12
  15   3  10   -2.25    6.80
  15  -3  11  105.54   15.31
  15   3  11  109.05   15.18
  15  -3  12   29.15   10.76
  15  -3  13    2.47    7.46
  15  -3  14    5.02    7.82
  15  -3  15   -4.61    8.43
  15   3  15   -2.34    7.96
  15  -3  15   17.83   10.12
 -15   4  17    6.70    9.77
  15  -4 -16   40.48    9.36
 -15   4  16   41.59   12.80
 -15   4  16   46.82   14.39
  15   4 -15    8.21    5.99
  15  -4 -15    2.05    5.54
 -15   4  15    3.49    9.42
 -15   4  15    6.10    9.21
  15   4 -14   -9.92    5.99
  15  -4 -14   13.84    7.06
 -15   4  14   13.40   11.08
 -15   4  14   -5.82    9.07
  15   4 -13   15.38    6.40
  15  -4 -13   22.80    7.14
 -15   4  13   22.40   11.18
 -15   4  13   24.97   10.40
  15   4 -12   29.76    8.16
  15  -4 -12   40.20    8.27
 -15   4  12   36.69   11.74
  15   4 -11   -1.80    4.65
  15  -4 -11   -1.76    4.11
  15   4 -10  136.67   14.10
  15  -4 -10  131.92   13.88
 -15   4  10  141.21   18.42
  15  -4  -9    3.26    4.91
 -15   4   9   -5.25    7.92
 -15  -4   8   -5.64   10.08
 -15   4   8    2.68    8.87
  15   4  -8    4.87    4.56
  15  -4  -8    6.34    4.28
 -15   4   8   -2.48    7.49
 -15  -4   7    8.00    8.81
 -15   4   7    2.53    6.84
  15   4  -7   -3.16    4.08
  15  -4  -7    7.71    4.33
 -15   4   7   -2.34    6.57
 -15  -4   6   -2.52    8.55
 -15   4   6    4.77    6.44
  15   4  -6   -1.54    3.60
  15  -4  -6   -1.51    3.73
 -15   4   6    2.21    7.31
 -15   4   5  177.30   18.05
 -15  -4   5  139.16   16.91
 -15   4   5  150.31   16.59
 -15  -4   4   86.12   14.29
 -15   4   4   92.60   14.14
 -15   4   4  111.69   13.74
 -15  -4   3   -8.23    9.07
 -15   4   3   -5.93    8.43
 -15   4   3    1.86    7.94
 -15  -4   2   23.09    8.14
 -15   4   2   41.25   10.07
 -15   4   2   26.64    8.13
 -15  -4   1  230.38   19.00
 -15   4   1  222.79   18.82
 -15   4   1  198.60   17.55
 -15  -4   0   89.17   12.00
 -15   4   0   98.29   12.51
 -15   4   0   67.90   10.16
 -15   4  -1   47.43    9.20
 -15   4  -1   64.13    9.66
  15  -4   2   -2.53    7.89
 -15   4  -2    1.67    4.12
  15  -4   3    7.55    7.34
 -15   4  -3   -1.72    4.25
  15  -4   4   -2.51    7.56
  15  -4   5   -4.93    7.69
  15  -4   6   36.81   11.55
  15  -4   7    2.42    6.79
  15  -4   8    2.41    7.75
  15  -4   9    2.43    7.81
  15  -4  10  109.45   15.41
  15  -4  11    2.46    8.12
  15  -4  12   74.06   13.02
  15  -4  14   43.29   11.67
 -15   5  16   10.89   12.66
 -15   5  15   -7.05   10.64
  15   5 -14    3.81    4.69
 -15   5  14   -3.39    9.53
 -15   5  14    2.94    9.72
  15   5 -13   40.73    8.27
 -15   5  13   35.71   11.68
 -15   5  12    6.21    9.38
  15   5 -11   19.10    6.38
 -15   5  11   11.88    9.27
  15   5 -10   60.32    9.53
 -15   5  10   48.07   12.23
  15   5  -9   17.94    6.14
 -15   5   9   24.19    9.39
 -15   5   8  211.68   21.21
  15   5  -8  204.35   16.71
 -15   5   8  194.09   21.37
  15   5  -7   52.47    8.47
  15  -5  -7   57.72    8.91
 -15   5   7   48.40   11.32
 -15  -5   7   51.10   12.02
 -15   5   7   73.85   13.31
 -15   5   6  213.91   20.51
  15   5  -6  237.57   17.73
 -15  -5   6  262.49   23.43
 -15   5   6  204.39   21.14
 -15  -5   5   21.67    8.63
 -15   5   5   13.62    7.54
 -15   5   5   30.55    9.19
 -15   5   4   19.23    8.17
 -15  -5   4   22.62    8.83
 -15   5   4    8.23    5.80
 -15  -5   3   19.07    8.95
 -15   5   3   24.22    8.23
 -15   5   3   41.19    9.22
 -15  -5   2   -5.97    7.60
 -15   5   2   -9.53    6.13
 -15   5   2   -3.76    5.86
 -15   5   1    3.63    5.11
 -15   5   1    1.81    4.90
 -15  -5   0   -7.10    7.46
 -15   5   0    1.75    5.28
 -15   5   0   -5.30    5.33
 -15   5  -1   27.42    7.84
 -15  -5  -1   18.60    6.78
 -15   5  -1   33.16    7.98
  15  -5   2   18.05    8.53
 -15   5  -2    6.82    5.15
 -15  -5  -2   24.65    7.02
 -15   5  -2    1.75    4.33
  15  -5   3   15.48    8.77
 -15   5  -3    7.17    5.24
  15  -5   4    5.09    7.42
  15  -5   5   17.75    9.50
  15  -5   6  291.88   25.24
  15  -5   7  159.01   18.39
  15  -5   8   59.41   12.07
  15  -5   9  102.27   15.35
  15  -5  10   37.36   10.71
  15  -5  12   -5.04    9.22
  15  -5  13   20.42    9.77
 -15   6  15   14.22   14.13
 -15   6  15    6.18    9.94
 -15   6  14   -2.97    9.81
 -15   6  14    3.43   10.35
 -15   6  13    6.61    9.63
 -15   6  13   -2.36    8.63
 -15   6  12   19.00   11.06
 -15   6  11  142.57   19.13
 -15   6  10    5.80    8.76
 -15   6   9   33.20   10.63
 -15   6   8    5.27    7.11
 -15   6   7   -5.01    7.31
 -15   6   6    2.39    6.72
 -15   6   5   61.48   11.43
 -15   6   4   52.11   10.72
 -15   6   3   16.49    8.05
 -15   6   2   69.25   11.79
 -15   6   1   49.66   10.35
 -15   6   0   57.63   10.24
 -15   6  -1   31.33    8.20
  15  -6   2   86.09   14.62
 -15   6  -2   71.43   11.20
  15  -6   3   49.77   12.32
 -15   6  -3   33.35    8.15
  15  -6   4   -5.25    8.19
 -15   6  -4   -1.91    4.70
  15  -6   5   28.48   10.72
  15  -6   6   33.53   10.51
  15  -6   7   -2.57    7.49
  15  -6   8   25.56    9.80
  15  -6   9   96.84   15.37
  15  -6  10   12.71    8.42
  15  -6  11  123.02   17.37
  15  -6  12    2.56    8.24
 -15   7  14   31.25   13.80
 -15   7  14    2.55    9.94
 -15   7  13   43.59   14.60
 -15   7  13   30.24   10.46
 -15   7  12    3.22    8.33
 -15   7  11   55.70   13.57
 -15   7  10   53.43   13.22
 -15   7   9   36.95   11.15
 -15   7   8   13.55    8.19
 -15   7   7   38.85   11.14
 -15   7   6   22.28    9.68
 -15   7   5   -2.37    7.84
 -15   7   4   36.25    9.26
 -15   7   4   37.20    8.43
 -15   7   3   15.19    7.01
 -15   7   3   26.38    7.80
 -15   7   2   12.51    6.31
 -15   7   1   28.23    8.07
 -15   7   0   46.96    9.30
 -15   7  -1    3.87    5.43
 -15   7  -2   22.90    7.33
 -15   7  -3   55.23   10.03
 -15   7  -4  133.50   14.66
 -15   7  -5    5.95    5.58
 -15   8   9    5.83    8.50
 -15   8   8   -2.79    9.24
 -15   8   7    5.34    7.22
 -15   8   6    5.12    7.46
 -15   8   5   19.66    8.16
 -15   8   4    7.08    7.81
 -15   8   4   14.16    7.23
 -15   8   3   11.32    6.61
 -15   8   3   12.26    7.31
 -15   8   2   -2.18    7.00
 -15   8   2   -4.13    7.01
 -15   8   1   48.80   10.20
 -15   8   0   10.30    7.54
 -15   8  -1  178.58   17.55
 -15   8  -2    1.99    5.36
 -15   8  -3   11.76    6.31
 -15   8  -5   -1.98    6.36
 -15   8  -7   66.10   11.04
 -15   9   5   -4.31    7.32
 -15   9   4    6.50    5.86
 -15   9   3   94.15   13.83
 -15   9   2   -4.40    6.64
 -15   9   1    4.43    5.98
 -16   0  18    3.52   10.97
 -16   0  17   -3.38   11.17
 -16   0  16   77.29   16.10
  16   0 -15   -4.42    6.88
 -16   0  15    3.06    8.92
 -16   0  15    3.41   10.64
  16   0 -14   64.20   11.32
 -16   0  14   95.44   17.56
 -16   0  14   57.89   13.93
  16   0 -13   -4.14    6.25
 -16   0  13   -2.74    7.99
 -16   0  13   18.88   10.40
  16   0 -12    2.00    5.41
 -16   0  12    2.58    7.53
 -16   0  12    5.99    9.04
  16   0 -11    1.93    5.64
 -16   0  11   -4.86    8.25
 -16   0  10  405.15   34.12
  16   0 -10  489.00   29.48
 -16   0  10  506.80   34.46
 -16   0  10  414.20   30.01
 -16   0   9   -5.10    7.16
 -16   0   9    2.99    8.08
  16   0  -9   -9.01    5.96
 -16   0   9   -2.16    7.51
  16   0  -8   40.02    8.54
 -16   0   8   59.29   12.38
 -16   0   8   59.66   11.29
  16   0  -7   -1.69    4.76
 -16   0   7   -2.65    7.74
 -16   0   7   -2.24    6.30
  16   0  -6   19.79    6.38
 -16   0   6   29.71    9.11
  16   0  -5   -3.23    5.04
 -16   0   5    2.31    5.97
 -16   0   5   -5.88    6.11
 -16   0   4   15.03    6.93
 -16   0   4   21.84    6.83
 -16   0   3   -4.03    5.44
 -16   0   3    1.70    4.79
 -16   0   2    3.80    4.92
 -16   0   2    4.78    4.48
 -16   0   1   -1.81    4.87
 -16   0   1   -3.00    4.37
 -16   0   0   28.04    7.42
 -16   0   0   28.80    6.62
 -16   0  -1   -3.47    4.49
 -16   0  -1   -2.82    4.39
 -16   0  -2    1.41    3.47
 -16   0  -3   -1.45    3.39
  16   0   3   -2.54    6.87
  16   0   4   -2.54    7.40
  16   0   5    2.53    7.88
  16   0   6  142.17   17.55
  16   0   7   -2.48    7.74
  16   0   8  495.66   33.87
  16   0   9   -4.94    6.68
  16   0  10  140.89   17.71
  16   0  11   -2.49    7.78
  16   0  12   42.43   10.76
  16   0  13   -2.52    8.57
  16   0  14   78.99   14.03
  16   0  15   -9.68    9.25
  16   0  15   -5.15    8.29
 -16  -1  18   -3.50   11.89
 -16   1  18   10.63   12.65
 -16   1  17   -6.78   11.81
 -16  -1  17   13.46   12.02
 -16   1  16   51.66   13.83
 -16  -1  16   22.54   11.29
  16   1 -15   -6.61    8.06
  16  -1 -15   -2.20    7.85
 -16   1  15    3.07   10.14
 -16   1  15   10.47   10.18
 -16  -1  15    3.07    8.62
  16   1 -14   12.81    6.89
  16  -1 -14   25.52    7.97
 -16  -1  14   31.90   11.09
 -16   1  14    8.74    9.65
 -16   1  14   26.87   12.84
 -16  -1  14    3.20    9.99
  16   1 -13   47.63   10.29
  16  -1 -13   84.43   12.08
 -16  -1  13   57.46   12.96
 -16  -1  13   67.68   15.11
 -16   1  13   38.59   11.94
 -16   1  13   67.37   15.95
 -16   1  12  170.96   21.41
  16  -1 -12  179.04   17.06
  16   1 -12  136.25   15.53
 -16  -1  12  187.96   20.31
 -16  -1  12  155.58   20.14
 -16   1  12  190.19   20.63
 -16   1  11   40.64   11.39
  16   1 -11   42.64    8.91
  16  -1 -11   26.90    7.75
 -16  -1  11   58.05   12.14
 -16   1  11   32.05   10.43
 -16  -1  11   39.00   11.96
 -16  -1  10   10.53    8.22
 -16   1  10   10.96    8.27
 -16  -1  10    9.60   10.87
 -16   1  10   -3.14    9.49
  16   1 -10   13.10    7.00
  16  -1 -10    5.56    5.60
 -16  -1  10   20.39    9.01
 -16  -1   9   24.94    9.92
 -16   1   9   20.69    8.80
 -16  -1   9   -6.05    9.73
 -16   1   9   32.71   11.12
  16   1  -9   14.46    5.99
  16  -1  -9   28.66    7.13
 -16  -1   9    6.35    6.82
 -16  -1   8   16.47    7.59
 -16   1   8   12.16    7.60
 -16  -1   8   31.42   10.46
 -16   1   8   11.23    8.77
  16   1  -8   26.19    6.83
  16  -1  -8   13.84    5.59
 -16  -1   8   15.86    7.11
  16   1  -7   -1.70    4.39
  16  -1  -7    1.68    4.53
 -16  -1   7    2.68    6.27
 -16   1   7   -5.28    7.97
 -16  -1   7    2.20    6.42
 -16   1   7   -2.29    6.42
  16   1  -6   84.34   10.93
  16  -1  -6   93.62   11.23
 -16  -1   6   85.26   13.76
 -16   1   6   76.47   12.99
 -16  -1   6   98.82   13.41
 -16   1   6  102.55   13.69
  16   1  -5   56.69    9.28
  16  -1  -5   64.50    9.58
 -16  -1   5   44.32    9.62
 -16   1   5   39.18   10.16
 -16  -1   5   63.80   10.49
 -16   1   5   44.00    9.66
 -16  -1   4   17.39    7.60
 -16   1   4   19.39    7.89
 -16  -1   4   10.79    5.80
 -16   1   4   14.88    6.34
 -16  -1   3   14.20    6.75
 -16   1   3   24.22    7.42
 -16  -1   3   23.37    6.68
 -16   1   3   26.22    7.25
 -16  -1   2   51.57    9.60
 -16   1   2   43.92    9.25
 -16  -1   2   54.85    9.01
 -16   1   2   68.79    9.99
 -16  -1   1   52.41    9.19
 -16   1   1   50.87    9.13
 -16  -1   1   55.75    8.35
 -16   1   1   43.78    8.00
 -16  -1   0    3.49    5.27
 -16   1   0   -3.53    5.15
 -16  -1   0    1.39    3.91
 -16   1   0    3.00    4.53
 -16   1  -1   -1.76    5.31
 -16  -1  -1    1.73    4.46
 -16  -1  -1   -1.35    3.93
 -16   1  -1    4.44    4.61
 -16  -1  -2    5.33    3.60
 -16   1  -2    2.99    4.81
  16  -1   2    2.56    8.24
 -16  -1  -3   82.96    9.45
  16   1   3   75.09   13.32
  16  -1   3   48.97   11.80
  16  -1   4   99.88   15.41
  16   1   4  153.62   17.96
  16   1   5   17.53    9.20
  16  -1   5   40.80   10.74
  16   1   6   74.90   13.16
  16  -1   6   72.85   13.67
  16  -1   7   20.03    9.39
  16   1   7   24.92    9.35
  16   1   8   29.50    9.48
  16  -1   8   52.39   12.06
  16  -1   9   27.38    9.39
  16   1   9   51.53   11.86
  16   1  10   29.71    9.69
  16  -1  10   22.58    9.42
  16  -1  11   30.11    9.81
  16   1  11   14.85    8.87
  16  -1  12   83.57   14.32
  16   1  12   62.48   12.87
  16   1  13   55.03   12.60
  16  -1  13   43.12   11.31
  16   1  14   -7.58    9.65
  16  -1  14    5.13    8.24
  16   1  15   74.03   13.97
  16  -1  15   57.27   12.71
 -16   2  17    3.40    9.91
  16   2 -16    6.75    6.33
  16  -2 -16    2.25    6.31
 -16   2  16   -3.25    9.47
 -16   2  16   10.99   12.76
  16   2 -15    2.18    5.90
  16  -2 -15   15.22    7.20
 -16   2  15   14.18   12.05
 -16   2  15   27.82   12.05
  16   2 -14   48.74   10.48
  16  -2 -14   10.53    6.40
 -16   2  14   23.51   10.02
 -16   2  14   30.59   12.73
  16   2 -13    2.05    5.99
  16  -2 -13   -2.03    5.93
 -16   2  13   -2.79    8.69
 -16  -2  13    2.97    9.26
 -16   2  13    3.26    9.15
 -16   2  12    3.10    8.37
  16   2 -12   -1.99    4.92
  16  -2 -12    3.93    5.30
 -16  -2  12    2.85    9.16
 -16   2  12   -2.65    8.50
 -16   2  11   32.33   11.23
  16   2 -11    5.79    5.23
  16  -2 -11   20.83    7.09
 -16  -2  11    8.14    9.46
 -16   2  10   44.58   11.75
  16   2 -10   31.58    8.27
  16  -2 -10   25.58    7.49
 -16  -2  10   38.43   11.70
 -16  -2   9  177.81   21.41
 -16   2   9  204.65   22.75
  16   2  -9  172.55   16.52
  16  -2  -9  222.45   17.99
 -16  -2   9  194.16   20.39
 -16   2   9  215.52   21.51
 -16  -2   8   -2.90    7.82
 -16   2   8   -8.42    9.78
 -16  -2   8   -2.29    6.93
 -16   2   8   -2.47    6.40
  16   2  -8   -1.75    5.27
  16  -2  -8   -1.71    4.42
 -16  -2   7    2.73    7.36
 -16   2   7    7.92    8.73
 -16  -2   7    2.16    5.82
 -16   2   7    2.33    6.55
  16   2  -7    1.69    4.57
  16  -2  -7    1.67    4.11
 -16  -2   6   17.84    8.43
 -16   2   6   -2.48    7.23
 -16  -2   6    6.06    5.90
 -16   2   6   10.89    7.79
  16   2  -6   16.52    6.18
  16  -2  -6    9.79    4.94
 -16  -2   5   -2.38    6.42
 -16   2   5    2.32    6.52
 -16  -2   5    1.89    5.31
 -16   2   5   -2.04    5.74
  16   2  -5   -1.62    4.37
 -16  -2   4  404.81   25.98
 -16  -2   4  379.78   27.76
 -16   2   4  362.13   27.49
 -16   2   4  429.34   27.38
 -16  -2   3   35.10    9.54
 -16   2   3    8.17    6.97
 -16  -2   3   34.73    8.48
 -16   2   3   14.39    6.31
 -16  -2   2  236.98   19.59
 -16   2   2  187.03   17.77
 -16  -2   2  195.75   16.66
 -16   2   2  228.77   18.12
 -16  -2   1   14.65    7.01
 -16   2   1   14.77    7.21
 -16  -2   1   15.86    6.07
 -16   2   1    9.75    5.82
 -16  -2   0   -3.52    5.99
 -16   2   0   -1.80    7.00
 -16  -2   0   -2.71    5.07
 -16   2   0   -1.58    6.16
 -16   2  -1   24.97    7.80
 -16  -2  -1   36.26    8.02
 -16  -2  -1   31.07    6.46
 -16   2  -1   23.49    6.53
 -16  -2  -2  195.69   14.64
 -16   2  -2  184.14   15.90
  16  -2   2  193.17   20.42
 -16  -2  -3   53.60    7.61
 -16   2  -3   52.62    8.89
  16  -2   3   57.43   12.68
  16  -2   4    5.17    7.27
  16   2   4   34.88   10.82
  16  -2   5   12.85    8.74
  16   2   5    2.49    7.77
  16   2   6   67.35   13.18
  16  -2   6   89.50   14.35
  16  -2   7   22.93    9.13
  16   2   7   19.91    9.33
  16   2   8   -2.45    6.90
  16  -2   8    2.54    7.40
  16   2   9    7.35    8.11
  16  -2   9   15.18    8.83
  16   2  10   74.13   13.53
  16  -2  10   98.45   14.89
  16  -2  11    5.09    7.69
  16   2  11    9.87    7.70
  16  -2  12  112.03   16.22
  16   2  12  110.98   15.75
  16  -2  13    2.57    8.02
  16   2  13   -2.49    7.52
  16  -2  14   41.61   11.98
  16   2  14   72.83   12.98
  16   2  15    2.53    8.38
  16   3 -17   -2.27    6.87
  16  -3 -17   -2.28    5.34
 -16   3  17    6.84   10.99
  16   3 -16   28.76    8.72
  16  -3 -16   55.22   10.70
 -16   3  16   26.15   11.75
 -16   3  16   55.58   16.89
  16   3 -15   -2.14    7.09
  16  -3 -15    2.14    5.53
 -16   3  15    3.58   10.06
 -16   3  15    9.35    8.76
  16   3 -14   -2.08    5.39
  16  -3 -14   -4.14    5.82
 -16   3  14    6.89   11.39
 -16   3  14   -5.94    9.25
  16   3 -13   -2.02    6.68
  16  -3 -13    2.00    6.23
 -16   3  13   -3.29   10.57
 -16   3  13   -2.83    7.94
  16   3 -12    3.92    6.65
  16  -3 -12   -1.93    5.42
 -16   3  12   12.57    8.83
  16   3 -11    1.90    5.14
  16  -3 -11    1.86    5.02
 -16   3  11   17.95    9.89
  16   3 -10   -1.83    5.54
  16  -3 -10   -1.80    5.24
 -16   3  10    5.68    6.99
  16   3  -9    1.78    5.38
  16  -3  -9   -5.22    5.76
 -16  -3   9    6.22   10.57
 -16   3   9   -5.95   10.62
 -16   3   9   -2.68    7.54
  16   3  -8   13.86    5.42
  16  -3  -8   11.83    5.28
 -16  -3   8    5.88   10.51
 -16   3   8    8.43   10.05
 -16   3   8   10.08    7.62
  16   3  -7    8.42    6.30
  16  -3  -7    3.30    4.45
 -16  -3   7    5.55    8.65
 -16   3   7    2.66    7.75
 -16   3   7   -2.38    6.68
  16   3  -6   60.88    9.34
  16  -3  -6   69.72    9.63
 -16  -3   6   54.74   12.05
 -16   3   6   64.92   12.66
 -16   3   6   67.30   11.81
 -16  -3   5   12.17    8.27
 -16   3   5    4.70    7.32
 -16   3   5   -2.11    6.79
 -16  -3   4   38.66   10.41
 -16   3   4   32.97    9.77
 -16   3   4   37.60    9.59
 -16  -3   3   21.17    8.94
 -16   3   3   35.27   10.65
 -16   3   3   31.87    9.52
 -16  -3   2  137.37   15.64
 -16   3   2  146.01   16.25
 -16   3   2  130.45   14.40
 -16  -3   1  284.10   21.66
 -16   3   1  285.51   21.87
 -16   3   1  244.48   19.68
 -16  -3   0  223.88   18.99
 -16   3   0  231.95   19.66
 -16   3   0  223.36   18.53
 -16   3  -1  133.77   14.71
 -16  -3  -1  153.18   15.00
 -16   3  -1  167.86   15.09
 -16  -3  -2   53.61    9.91
 -16   3  -2   45.43    8.52
 -16   3  -3   22.61    6.82
  16  -3   3   23.91   10.38
  16  -3   4   52.56   12.25
  16  -3   5    2.62    9.13
  16   3   5    2.48    6.69
  16  -3   6   96.37   15.36
  16   3   6   79.76   13.66
  16   3   7   -2.48    7.73
  16  -3   7    5.13    7.20
  16   3   8   -2.47    7.94
  16  -3   8   -5.11    7.18
  16  -3   9   10.28    9.40
  16   3   9    9.85    8.15
  16  -3  10   25.64   10.64
  16   3  10   41.71   11.37
  16  -3  11    7.75    8.06
  16  -3  12   -2.58    7.53
  16  -3  13    2.61    7.88
  16  -3  14   76.47   14.04
  16   4 -17   -2.21    6.45
  16  -4 -17   15.59    7.57
  16   4 -16   27.90    8.25
  16  -4 -16   23.73    7.77
 -16   4  16   19.74   11.22
  16   4 -15    2.09    5.40
  16  -4 -15  -10.44    6.31
 -16   4  15    3.62   10.55
 -16   4  15    3.14    8.47
  16   4 -14   38.56    8.88
  16  -4 -14   28.21    7.78
 -16   4  14   38.19   12.74
 -16   4  14   29.99   11.51
  16   4 -13   -7.88    6.14
  16  -4 -13   -1.94    6.25
 -16   4  13    6.65    8.98
  16   4 -12   17.21    6.53
  16  -4 -12   18.76    6.57
 -16   4  12   28.70   11.41
  16   4 -11   20.40    6.96
  16  -4 -11   10.86    5.50
  16   4 -10   21.58    6.81
  16  -4 -10   38.59    8.50
 -16   4  10   46.34   12.20
  16   4  -9    1.75    4.72
  16  -4  -9    1.71    4.79
 -16   4   9   -2.98    7.35
 -16   4   9   -2.74    7.71
  16   4  -8   32.40    8.00
  16  -4  -8   29.92    7.47
 -16  -4   8   74.47   14.38
 -16   4   8   67.82   14.51
 -16   4   8   51.69   11.66
  16   4  -7    1.66    5.18
  16  -4  -7   -1.63    4.58
 -16  -4   7  -16.93    9.59
 -16   4   7    2.67    8.07
 -16   4   7   -2.45    8.09
  16   4  -6   48.91    8.54
 -16  -4   6   63.84   13.24
 -16   4   6   60.63   12.59
 -16   4   6   48.64   10.69
 -16  -4   5  107.43   15.81
 -16   4   5   95.08   14.74
 -16   4   5  129.24   15.28
 -16  -4   4   -7.03   10.17
 -16   4   4   -2.24    8.74
 -16   4   4   -2.07    6.47
 -16  -4   3  273.28   22.64
 -16   4   3  247.70   21.61
 -16   4   3  274.35   21.71
 -16   4   2   -6.02    8.28
 -16   4   2   -3.78    6.91
 -16  -4   1   -1.93    6.74
 -16   4   1    1.92    6.36
 -16   4   1   14.60    6.67
 -16  -4   0  189.47   17.60
 -16   4   0  162.10   16.19
 -16   4   0  156.76   15.70
 -16  -4  -1   54.96   10.00
 -16   4  -1   56.60   10.19
 -16   4  -1   72.32   10.77
  16  -4   2   80.86   14.19
 -16   4  -2   84.48   11.49
 -16  -4  -2   66.08   10.66
 -16   4  -2   76.42   10.88
 -16   4  -3   43.81    8.77
  16  -4   3   35.09   11.22
  16  -4   4  170.19   20.08
  16  -4   5   58.56   12.44
  16  -4   6   68.82   13.74
  16  -4   7   -5.27    8.72
  16  -4   8   23.61    9.84
  16  -4   9   39.17   10.86
  16  -4  10    2.60    8.12
  16  -4  11   73.46   13.50
  16  -4  12    2.64    8.74
  16  -4  13   34.64   11.44
 -16   5  15   -7.29   12.70
 -16   5  15   -6.32   10.73
 -16   5  14    7.02   10.23
 -16   5  14   -3.03    9.44
 -16   5  13  -10.11   11.14
  16   5 -12   12.91    6.45
 -16   5  12   22.64   11.29
  16   5 -11   41.21    8.32
 -16   5  11   77.39   15.73
  16   5 -10   29.76    7.02
 -16   5  10   23.63    9.82
  16   5  -9   13.64    6.24
 -16   5   9    8.42    7.27
  16   5  -8   -1.67    4.86
 -16   5   8    2.83    7.65
 -16   5   8    2.67    6.24
  16   5  -7   11.42    5.11
 -16   5   7   15.20    7.66
 -16   5   7   24.17    9.61
 -16   5   6   21.67    8.64
 -16   5   6   22.91    9.34
 -16   5   5    2.29    6.91
 -16   5   5   -2.41    7.97
 -16   5   4  141.36   15.81
 -16   5   4  116.02   15.29
 -16   5   3    2.08    6.06
 -16   5   3   -4.31    7.88
 -16   5   2   13.97    6.24
 -16  -5   2   10.60    6.20
 -16   5   2   26.54    7.97
 -16   5   1   -1.93    5.63
 -16   5   1   -1.96    5.29
 -16   5   0    3.77    5.69
 -16   5   0   -5.67    6.76
 -16   5  -1   -5.58    6.65
 -16   5  -1   -5.56    6.77
  16  -5   2  158.08   19.61
 -16   5  -2  132.24   14.67
 -16   5  -2  134.28   14.51
  16  -5   3   76.98   14.67
 -16   5  -3  106.59   13.52
 -16   5  -3  124.87   13.72
 -16   5  -4  426.98   27.76
  16  -5   4  383.08   31.33
  16  -5   5   68.13   14.44
  16  -5   6   24.44   10.18
  16  -5   7   45.91   12.38
  16  -5   8   24.17   10.29
  16  -5   9   32.10   10.27
  16  -5  10    5.33    8.30
  16  -5  11   99.21   15.88
  16  -5  12   56.67   13.12
 -16   6  14   -7.10    9.98
 -16   6  13   17.08   12.22
 -16   6  12   13.12    9.91
 -16   6  11   22.04   10.44
 -16   6  10   -3.01    7.78
 -16   6   9   83.72   14.87
 -16   6   8   16.50    9.11
 -16   6   7   99.58   15.68
 -16   6   6    2.50    8.04
 -16   6   5   64.42   11.97
 -16   6   4    9.11    6.41
 -16   6   3   -2.18    5.38
 -16   6   2   -2.10    5.18
 -16   6   1   20.30    6.75
 -16   6   0    7.92    5.78
 -16   6  -1  102.05   12.84
 -16   6  -2   15.60    6.99
  16  -6   3  116.88   16.96
 -16   6  -3  161.13   16.08
  16  -6   4   25.07   10.30
 -16   6  -4   68.45   11.10
  16  -6   5  172.17   20.44
 -16   6  -5  143.49   15.80
  16  -6   6   49.79   12.50
  16  -6   7   88.05   15.62
  16  -6   8    2.74    8.54
  16  -6   9   62.68   13.44
  16  -6  10   -2.71    8.19
  16  -6  11   10.92    9.52
 -16   7  12   16.67   11.63
 -16   7  11    3.21    9.02
 -16   7  10   27.80   11.07
 -16   7   9    2.96    8.32
 -16   7   8    2.83    7.64
 -16   7   7   54.07   12.43
 -16   7   6   15.52    8.57
 -16   7   5   19.83    8.00
 -16   7   4   -2.38    6.93
 -16   7   3    6.84    6.65
 -16   7   2   30.96    8.68
 -16   7   1   23.52    7.86
 -16   7   0   16.65    7.45
 -16   7  -1   -4.11    5.32
 -16   7  -2    6.08    5.24
 -16   7  -3   12.20    6.74
 -16   7  -4   83.88   12.39
 -16   7  -5  244.51   20.96
 -16   7  -6   53.64   10.61
 -16   8  10   50.25   14.17
 -16   8   9    3.02    9.41
 -16   8   8   -5.79    9.57
 -16   8   7   11.15    9.48
 -16   8   5  115.64   16.40
 -16   8   4    4.94    8.39
 -16   8   3   75.97   13.60
 -16   8   2   39.19    9.98
 -16   8   2   56.52   10.82
 -16   8   1   24.52    8.55
 -16   8   0    6.50    6.97
 -16   8  -1   42.59    9.21
 -16   8  -2   -2.09    5.65
 -16   8  -3   29.11    7.84
 -16   8  -4    6.24    5.62
 -16   8  -5   46.11    9.93
 -16   8  -6   10.62    5.98
 -16   8  -7   15.15    6.97
 -16   9   3    8.85    6.90
 -16   9   2   20.05    8.17
 -16   9   1   87.52   13.55
 -17   0  17   -3.45   11.10
  17   0 -16   23.11    7.25
 -17   0  16   23.03   11.21
  17   0 -15   -2.24    6.30
 -17   0  15    3.13   10.64
 -17   0  15   -3.55   10.34
  17   0 -14   56.78   10.92
 -17   0  14  104.12   16.42
 -17   0  14   75.31   15.98
  17   0 -13   -4.24    5.96
 -17   0  13   -3.28   11.43
 -17   0  13   -5.64    8.79
  17   0 -12  520.16   32.22
 -17   0  12  475.06   36.86
 -17   0  12  519.68   35.73
 -17   0  11    2.97    8.67
  17   0 -11    2.00    5.17
 -17   0  11   -5.02    8.07
 -17   0  10   28.21   11.25
 -17   0  10   39.82   12.96
  17   0 -10   25.19    7.75
 -17   0  10   16.59    9.82
 -17   0   9   -2.66    7.18
 -17   0   9    3.14    8.82
  17   0  -9   -1.88    5.27
 -17   0   9   -4.48    7.19
  17   0  -8   96.82   12.51
 -17   0   8   91.95   16.34
 -17   0   8   87.55   14.16
  17   0  -7   -1.78    5.37
 -17   0   7   -8.36    9.47
 -17   0   7   -2.35    6.86
  17   0  -6   33.12    7.49
 -17   0   6   15.63    7.91
 -17   0   6   24.30    8.30
 -17   0   5   -2.44    5.70
 -17   0   5   -4.12    6.22
 -17   0   4   -2.28    5.89
 -17   0   4    1.93    5.63
 -17   0   3   -4.29    5.79
 -17   0   3    1.80    5.43
 -17   0   2   36.43    8.22
 -17   0   2   11.90    5.50
 -17   0   1   -1.61    4.36
 -17   0   0   26.30    6.95
 -17   0   0   33.94    7.29
 -17   0  -1   -1.86    5.23
 -17   0  -1   -3.02    4.70
 -17   0  -2   99.38   11.12
 -17   0  -3   -1.54    3.97
  17   0   3    8.08    8.13
  17   0   4  300.80   26.61
  17   0   5    5.45    7.94
  17   0   6   34.93   10.75
  17   0   7    2.68    8.09
  17   0   8   -2.67    7.79
  17   0   9   21.52    9.86
  17   0  10  163.57   19.55
  17   0  11   -8.02    9.09
  17   0  12   24.23    9.88
  17   0  13   -8.13    9.68
  17   0  14   -2.73    9.27
 -17  -1  18   -3.56   13.02
 -17   1  17   13.88   12.11
 -17  -1  17   23.98   13.89
  17   1 -16   57.53   11.19
  17  -1 -16   48.25   10.58
 -17   1  16   49.57   14.89
 -17   1  16   44.83   16.81
 -17  -1  16   39.38   13.88
  17   1 -15   94.11   13.71
  17  -1 -15  102.86   14.01
 -17   1  15  137.66   22.37
 -17   1  15  116.62   18.27
 -17  -1  15  109.65   18.33
  17   1 -14   85.12   13.16
  17  -1 -14   95.70   13.66
 -17  -1  14   98.02   16.55
 -17   1  14  104.94   17.18
 -17   1  14   90.66   17.93
 -17  -1  14  109.79   18.09
  17   1 -13   -6.36    5.96
  17  -1 -13   -2.11    5.45
 -17  -1  13   -2.80    8.74
 -17   1  13   -3.33   10.06
 -17   1  13   -8.53    9.14
 -17  -1  13    3.20    9.66
 -17   1  12   15.87   11.61
  17   1 -12    6.17    6.62
  17  -1 -12    4.09    5.29
 -17  -1  12    2.65    7.99
 -17   1  12    5.38    7.85
 -17  -1  12   12.22   10.38
 -17  -1  11    5.82    9.35
 -17   1  11    6.04    8.81
  17   1 -11   -3.99    6.59
  17  -1 -11  -17.80    6.90
 -17  -1  11    2.49    8.69
 -17   1  11   12.77    8.45
  17   1 -10   38.66    8.81
  17  -1 -10   49.79    9.70
 -17  -1  10   71.81   13.55
 -17   1  10   51.53   12.73
 -17  -1  10   36.91   13.18
 -17   1  10   49.44   13.93
  17   1  -9    7.52    5.49
  17  -1  -9    1.86    5.43
 -17  -1   9    7.85    8.16
 -17   1   9    8.11    7.89
 -17  -1   9    3.18    8.92
 -17   1   9   -3.12   11.14
  17   1  -8   45.81    8.95
  17  -1  -8   50.83    9.20
 -17  -1   8   39.41   10.29
 -17   1   8   35.61   10.61
 -17  -1   8   71.95   15.23
 -17   1   8   44.21   12.47
  17   1  -7   76.73   10.82
  17  -1  -7   81.39   10.99
 -17  -1   7   37.06   10.45
 -17   1   7   54.71   11.49
 -17  -1   7   76.09   14.24
 -17   1   7   58.28   13.34
  17   1  -6   29.73    7.14
  17  -1  -6   17.33    6.40
 -17  -1   6   28.16    8.49
 -17   1   6   26.84    8.41
 -17  -1   6   26.37    9.89
 -17   1   6   28.58    9.75
 -17  -1   5   14.26    6.77
 -17   1   5   35.67    9.13
 -17  -1   5   34.40    9.98
 -17   1   5   12.16    7.85
 -17  -1   4   -3.79    6.10
 -17   1   4   -1.97    6.32
 -17  -1   4   -4.59    8.00
 -17   1   4   -4.56    7.75
 -17  -1   3   96.06   12.36
 -17   1   3   86.51   11.92
 -17  -1   3   86.21   12.87
 -17   1   3  103.25   13.69
 -17   1   2    8.73    5.61
 -17  -1   2    6.65    5.65
 -17  -1   2    2.04    6.74
 -17   1   2    2.03    5.26
 -17  -1   1   -4.72    6.25
 -17   1   1   -3.34    6.24
 -17  -1   1    1.93    5.44
 -17   1   1   -1.95    6.62
 -17  -1   0   71.61    9.80
 -17   1   0   46.87    8.41
 -17  -1   0   46.79    9.33
 -17   1   0   79.70   11.63
 -17  -1  -1  134.49   13.07
 -17   1  -1  171.62   15.00
 -17  -1  -1  164.21   15.76
 -17   1  -1  133.72   14.72
 -17  -1  -2  208.72   16.14
 -17   1  -2  197.80   16.62
 -17  -1  -3   39.07    7.05
 -17   1  -3   49.09    8.52
  17   1   4    8.05    7.54
  17  -1   4    5.49    8.01
  17  -1   5   -5.50    8.57
  17   1   5    8.05    8.63
  17   1   6   72.64   13.94
  17  -1   6   59.61   13.05
  17   1   7   91.25   16.12
  17  -1   7   94.39   15.07
  17  -1   8    2.69    8.11
  17   1   8    5.35    8.08
  17  -1   9   27.04   10.57
  17   1   9   24.02   10.01
  17   1  10    5.32    7.48
  17  -1  10   -5.39    8.66
  17  -1  11   21.69   10.16
  17   1  11   18.77    9.37
  17   1  12   16.04   10.64
  17  -1  12   13.51    9.19
  17   1  13  113.02   16.60
  17  -1  13   57.11   12.83
  17   1  14    5.42    9.44
  17   2 -16    6.85    7.34
  17  -2 -16   -2.28    6.16
 -17   2  16    6.66    9.36
 -17   2  16   15.18   11.83
  17   2 -15    2.23    6.01
  17  -2 -15   -2.21    5.45
 -17   2  15    3.18    9.60
 -17   2  15    3.67   10.70
  17   2 -14   -2.16    6.31
  17  -2 -14   -2.15    6.49
 -17   2  14   17.67   12.00
  17   2 -13   42.18    9.40
  17  -2 -13   41.62    9.42
 -17   2  13   31.64   11.07
 -17   2  13   40.52   13.23
 -17   2  12   12.88   10.35
  17   2 -12   -2.05    7.66
  17  -2 -12   -6.07    6.69
 -17   2  12    8.20    8.25
 -17   2  11   76.58   14.95
  17   2 -11   59.63   10.49
  17  -2 -11   95.95   12.39
 -17   2  10   22.99   12.01
 -17   2  10    2.91    7.85
  17   2 -10   11.57    5.64
  17  -2 -10   13.27    5.74
 -17  -2   9    9.66   10.05
 -17   2   9    9.34   10.01
 -17   2   9   19.19   10.03
  17   2  -9    7.52    5.68
  17  -2  -9    9.21    5.57
 -17  -2   8  298.32   28.28
 -17   2   8  327.29   28.94
  17   2  -8  326.83   23.17
  17  -2  -8  375.38   24.38
 -17   2   8  289.30   25.78
  17   2  -7   85.69   11.54
  17  -2  -7   75.43   10.76
 -17  -2   7   97.41   16.38
 -17   2   7   94.48   15.46
 -17   2   7   94.82   14.12
  17   2  -6  106.49   12.68
  17  -2  -6  101.72   12.02
 -17  -2   6   77.71   13.78
 -17   2   6   91.36   15.18
 -17   2   6   91.12   13.34
 -17  -2   5   12.52    8.28
 -17   2   5   -2.45    7.65
 -17   2   5   -2.14    6.68
 -17  -2   4   16.38    8.17
 -17   2   4    9.22    8.44
 -17   2   4   10.08    6.10
 -17  -2   3   26.33    9.09
 -17   2   3   28.21    8.83
 -17   2   3   19.07    7.48
 -17  -2   2   78.37   12.36
 -17   2   2   80.56   12.37
 -17   2   2   83.60   11.59
 -17  -2   1   -7.83    8.22
 -17   2   1   -5.95    7.25
 -17  -2   0  203.65   17.78
 -17   2   0  148.63   15.97
 -17   2   0  166.62   15.64
 -17  -2  -1   60.89    9.97
 -17   2  -1   38.26    8.95
 -17   2  -1   35.26    7.99
 -17  -2  -2   20.28    6.78
 -17   2  -2   27.13    7.88
 -17   2  -2   18.60    6.08
 -17   2  -3   73.02   10.32
  17  -2   3   58.44   13.05
  17  -2   4   25.00    9.96
  17  -2   5    8.30    8.89
  17   2   5   -2.66    8.02
  17  -2   6   -8.27    9.12
  17   2   6   -2.67    6.91
  17   2   7   -5.35    7.81
  17  -2   7    2.74    8.28
  17  -2   8  111.94   16.25
  17   2   8   77.41   14.48
  17  -2   9   62.48   13.60
  17   2   9   74.62   14.29
  17  -2  10  103.80   16.10
  17   2  10   79.62   14.23
  17   2  11   10.58    8.99
  17  -2  11    2.72    8.75
  17  -2  12   -2.74    7.98
  17   2  12   -5.33    7.77
  17  -2  13   16.53   10.10
  17   2  13   24.12   10.88
  17   2  14   53.42   13.46
 -17   3  16   -7.67   12.32
 -17   3  16    3.35   10.46
  17   3 -16   -2.24    6.30
  17  -3 -16   -4.49    6.30
 -17   3  15   -3.20   10.60
 -17   3  15  -18.56   12.28
  17   3 -15  -13.11    7.23
  17  -3 -15   -4.35    7.77
 -17   3  14   12.21   10.10
 -17   3  14   10.70   12.12
  17   3 -14    2.13    6.20
  17  -3 -14   -2.11    5.46
 -17   3  13    2.91    7.86
  17   3 -13   -4.15    5.37
  17  -3 -13    2.04    5.04
 -17   3  13   -3.41    9.95
  17   3 -12   32.28    7.99
  17  -3 -12   51.40    9.97
 -17   3  12   48.86   12.77
  17   3 -11   19.61    7.98
  17  -3 -11   30.62    7.79
 -17   3  11   18.61    9.40
  17   3 -10   61.10   10.71
  17  -3 -10   57.75   10.35
 -17   3  10   47.13   12.73
 -17   3   9   89.03   15.02
  17   3  -9   77.98   11.25
  17  -3  -9   99.83   12.14
 -17  -3   9   68.61   15.16
 -17   3   9  109.18   17.46
 -17   3   8   -2.63    7.94
  17   3  -8    1.81    4.47
  17  -3  -8   -1.77    4.79
 -17  -3   8   -6.19    9.64
 -17   3   8   -8.87    9.21
 -17   3   7    2.48    6.41
  17   3  -7    7.10    5.36
  17  -3  -7    1.74    4.88
 -17  -3   7   -5.84    9.65
 -17   3   7    5.59    7.55
 -17   3   6   68.50   13.46
 -17   3   6   98.39   14.46
 -17   3   5   42.19   11.20
 -17   3   5   28.74    8.73
 -17   3   4  372.21   28.57
 -17   3   4  378.27   27.49
 -17  -3   3   31.46    9.58
 -17   3   3   66.17   12.51
 -17   3   3   53.61   10.63
 -17  -3   2  163.22   17.32
 -17   3   2  153.68   17.45
 -17   3   2  191.96   17.40
 -17  -3   1   -8.00    7.95
 -17   3   1   -4.04    8.18
 -17  -3   0   -5.74    7.46
 -17   3   0   -1.97    7.35
 -17   3   0    1.79    5.92
 -17  -3  -1   -5.58    6.65
 -17   3  -1   -3.89    6.43
 -17   3  -1   -5.32    6.33
 -17   3  -2   58.78   10.60
 -17  -3  -2   36.90    8.30
 -17   3  -2   50.04    9.17
  17  -3   3    2.83    8.82
 -17   3  -3   -1.84    4.97
  17  -3   4   22.60    9.86
 -17   3  -4   13.44    6.20
  17  -3   5    2.81    7.60
  17  -3   6   58.85   12.80
  17   3   6   92.30   14.90
  17  -3   7    2.79    8.95
  17   3   7    7.95    7.73
  17   3   8   18.56    9.06
  17  -3   8   41.59   11.27
  17   3   9   31.69   11.29
  17  -3   9   11.03    9.40
  17  -3  10   19.40    9.68
  17  -3  11   16.55   10.10
  17  -3  12   27.74   11.28
  17   4 -16   17.43    7.23
  17  -4 -16   19.66    7.45
 -17   4  15   -3.22    9.39
 -17   4  15   -3.74   11.28
  17   4 -15   -2.12    5.96
  17  -4 -15   -4.25    6.41
 -17   4  14   61.62   13.67
 -17   4  14   50.42   15.19
  17   4 -14   47.68    9.81
  17  -4 -14   30.82    8.30
 -17   4  13   -8.84    9.74
  17   4 -13   -2.02    6.48
  17  -4 -13   -3.99    6.42
 -17   4  13    3.45    9.32
  17   4 -12   49.05    9.46
  17  -4 -12   46.41    9.32
 -17   4  12   52.84   13.96
  17   4 -11   -1.91    5.38
  17  -4 -11   -3.76    5.85
 -17   4  11    3.15    8.51
  17   4 -10   29.92    7.21
  17  -4 -10   23.79    7.20
 -17   4  10   35.99   11.26
 -17   4   9   48.33   11.65
  17   4  -9   62.15   10.13
  17  -4  -9   40.96    8.05
 -17  -4   9   49.57   13.74
 -17   4   9   65.65   14.93
 -17   4   8    2.69    7.57
  17   4  -8   16.11    6.40
  17  -4  -8    5.23    5.27
 -17  -4   8    9.41   10.66
 -17   4   8    2.97    9.25
 -17   4   7  158.13   18.58
  17   4  -7  159.48   15.36
  17  -4  -7  103.00   12.69
 -17  -4   7  154.44   19.50
 -17   4   7  115.48   17.20
 -17  -4   6    5.60    8.17
 -17   4   6    8.00    8.05
 -17   4   6   -2.42    6.53
 -17  -4   5   18.45    8.97
 -17   4   5   12.57    7.61
 -17   4   5   13.74    7.59
 -17  -4   4   12.36    7.71
 -17   4   4   -4.75    7.86
 -17   4   4   -2.17    6.98
 -17  -4   3    2.32    7.01
 -17   4   3    4.51    6.80
 -17   4   3   -4.14    6.85
 -17  -4   2   28.31    8.87
 -17   4   2   30.08    8.91
 -17   4   2   21.89    7.81
 -17  -4   1   70.10   11.53
 -17   4   1   86.84   12.53
 -17   4   1   65.44   10.70
 -17  -4   0   -1.96    6.68
 -17   4   0   -4.01    6.99
 -17   4   0   -1.90    6.28
 -17   4  -1   29.59    7.80
 -17  -4  -1   47.34    8.95
 -17   4  -1   37.56    8.51
 -17   4  -2   19.73    6.72
 -17  -4  -2   14.82    6.15
 -17   4  -2   11.32    5.90
 -17  -4  -3   22.17    6.84
  17  -4   3   43.01   13.08
 -17   4  -3   40.62    9.11
  17  -4   4  329.49   29.21
 -17   4  -4  365.09   25.42
  17  -4   5    2.85    9.43
  17  -4   6   45.49   12.83
  17  -4   7   81.98   15.22
  17  -4   8   22.50   10.99
  17  -4   9  164.93   19.85
  17  -4  10   11.24    9.30
  17  -4  11   16.78   10.00
 -17   5  14  149.02   22.90
 -17   5  13    6.99   10.55
 -17   5  12    6.70    9.77
 -17   5  11    3.20    8.28
  17   5 -10    9.09    5.68
 -17   5  10    9.17    9.23
  17   5  -9   24.98    7.29
 -17   5   9   35.05   11.42
 -17   5   8    5.55    8.38
  17   5  -8    5.26    5.47
 -17   5   8   -5.95    9.84
 -17   5   7   -8.48    9.35
 -17   5   7    7.91    7.69
 -17   5   6    5.37    7.55
 -17   5   6    2.51    6.50
 -17   5   5   33.14    9.95
 -17   5   5    9.56    6.48
 -17   5   4   -2.41    8.20
 -17   5   4   15.94    7.53
 -17   5   3   -9.17    8.57
 -17   5   3   -6.54    7.98
 -17   5   2   17.49    7.67
 -17   5   2   37.79    9.44
 -17   5   1   12.63    6.77
 -17   5   1    4.06    6.34
 -17   5   0   79.47   11.92
 -17   5   0   62.14   10.76
 -17   5  -1   41.86    9.41
 -17   5  -1   31.65    8.40
 -17   5  -2   45.47    9.17
 -17   5  -2   61.71   11.01
 -17   5  -3    7.98    5.60
  17  -5   3    5.82    9.07
 -17   5  -3   -2.01    4.97
  17  -5   4   -2.91    8.49
 -17   5  -4    4.15    5.84
  17  -5   5  -17.50    9.38
 -17   5  -5    2.16    6.07
  17  -5   6   58.08   13.73
  17  -5   7   23.12   10.36
  17  -5   8   97.69   16.35
  17  -5   9    2.85    8.62
  17  -5  10   -2.87    9.74
 -17   6  12   13.61   10.62
 -17   6  11   32.66   12.00
 -17   6  10    3.13    7.71
 -17   6   9   17.91    9.61
 -17   6   8   14.23    8.32
 -17   6   7   16.37    9.52
 -17   6   6   -2.61    7.61
 -17   6   5    2.49    6.73
 -17   6   4    2.38    6.43
 -17   6   3   70.89   12.08
 -17   6   2   42.21    9.90
 -17   6   1    8.62    6.06
 -17   6   0   10.51    6.14
 -17   6  -1    2.09    5.63
 -17   6  -2   20.71    7.07
  17  -6   3  207.22   23.64
 -17   6  -3  311.17   23.09
  17  -6   4   -2.94    8.89
 -17   6  -4    4.26    5.99
  17  -6   5  115.46   17.56
 -17   6  -5  111.46   14.39
  17  -6   6   -5.90    9.75
 -17   6  -6    2.26    5.58
  17  -6   7   35.25   11.74
  17  -6   8   -2.92    9.10
  17  -6   9   11.60    9.60
 -17   7  10   38.32   13.00
 -17   7   9    3.06    8.60
 -17   7   8   -5.88    8.88
 -17   7   7   -8.44    8.77
 -17   7   6   94.32   15.21
 -17   7   5   15.52    8.08
 -17   7   4   22.48    9.17
 -17   7   3   28.81    9.59
 -17   7   2   25.49    8.52
 -17   7   1    2.26    6.60
 -17   7   0   -2.21    5.95
 -17   7  -1   -2.18    6.58
 -17   7  -2   19.37    7.15
 -17   7  -3   62.49   10.71
 -17   7  -4    2.17    5.35
 -17   7  -5   50.51   10.13
 -17   7  -6   -2.25    5.54
 -17   7  -7   78.62   12.91
 -17   8   8   66.08   14.43
 -17   8   7   83.61   15.52
 -17   8   6   75.07   14.45
 -17   8   5   -5.36    8.61
 -17   8   4   10.31    7.79
 -17   8   3    2.50    7.79
 -17   8   2    7.24    7.53
 -17   8   1   70.63   12.28
 -17   8   0   -2.29    6.92
 -17   8  -1    4.51    6.34
 -17   8  -2    2.21    5.72
 -17   8  -3   -2.20    5.69
 -17   8  -4    2.20    5.68
 -18   0  17    3.52   10.26
 -18   0  16   30.25   12.88
 -18   0  15    3.20    9.34
 -18   0  15   -3.67   11.08
  18   0 -15    2.29    5.64
 -18   0  14    9.14    9.52
 -18   0  14   31.91   13.55
  18   0 -14   17.83    7.19
 -18   0  13   -5.79    9.57
 -18   0  13    6.79   11.23
  18   0 -13   -4.36    7.40
 -18   0  12   13.70    8.30
  18   0 -12   23.28    7.94
 -18   0  12   32.41   12.40
 -18   0  11    2.59    7.55
  18   0 -11   -2.06    5.07
 -18   0  11    9.26   10.21
 -18   0  10   19.58    9.00
  18   0 -10   32.10    8.61
 -18   0  10   17.58    8.59
 -18   0   9   -6.95    7.87
 -18   0   9    2.77    7.16
  18   0  -9   -3.92    5.29
 -18   0   9    6.56    9.21
 -18   0   8    2.61    7.05
  18   0  -8   -1.91    4.71
 -18   0   8    6.20    8.71
 -18   0   7   -2.46    6.63
 -18   0   6    2.73    7.37
 -18   0   6    4.62    6.23
 -18   0   5   -2.56    7.98
 -18   0   5   -2.16    6.51
 -18   0   4   98.43   14.66
 -18   0   4  125.56   14.65
 -18   0   3   -4.53    8.66
 -18   0   3   -5.72    6.98
 -18   0   2   15.10    7.36
 -18   0   2   21.66    6.92
 -18   0   1   -6.21    8.22
 -18   0   1   -1.72    6.15
 -18   0   0  196.98   18.11
 -18   0   0  172.74   15.82
 -18   0  -1   -6.49    6.32
 -18   0  -2  144.21   15.46
 -18   0  -2  152.66   14.35
 -18   0  -3   -1.63    4.58
  18   0   4   11.49    9.24
 -18   0  -4    8.43    4.93
  18   0   5   -5.79    9.30
  18   0   6   83.57   15.01
  18   0   7   -8.61    8.67
  18   0   8   11.57    9.03
  18   0   9    2.88    8.40
  18   0  10   51.59   12.96
  18   0  11   17.29    9.81
  18   0  12   -2.87    7.75
 -18   1  16    3.38    9.86
 -18   1  16   11.59   14.75
 -18   1  15   -3.23    9.75
 -18   1  15    3.75   12.74
 -18  -1  15    3.57   11.12
  18   1 -15   -4.56    5.62
  18  -1 -15   -2.27    5.87
 -18  -1  14   41.45   14.54
 -18   1  14   36.03   13.51
 -18   1  14   12.31    9.04
  18   1 -14   37.88    9.58
  18  -1 -14   42.14    9.99
 -18   1  13   20.47   11.40
 -18  -1  13   29.88   13.45
 -18   1  13    6.89   10.74
  18   1 -13    8.67    6.77
  18  -1 -13    6.47    6.52
 -18  -1  12  199.83   23.28
 -18   1  12  169.20   20.36
  18   1 -12  205.54   18.90
  18  -1 -12  170.37   17.59
 -18   1  12  171.44   21.83
 -18   1  11    5.27    8.46
  18   1 -11   -2.06    6.01
  18  -1 -11  -10.22    5.96
 -18  -1  11    3.02    8.82
 -18   1  11    6.28    9.47
 -18   1  10   32.73   11.18
  18   1 -10   54.31   12.40
  18  -1 -10   17.93    7.04
 -18  -1  10   28.03   12.86
 -18   1  10   24.07   12.04
 -18  -1   9   24.55    9.55
 -18   1   9   25.32   10.55
  18   1  -9   27.49    8.29
  18  -1  -9   25.30    7.63
 -18  -1   9   33.14   11.58
 -18   1   9    9.78   10.20
 -18  -1   8    2.58    7.24
 -18   1   8    2.65    8.75
  18   1  -8    5.74    5.78
  18  -1  -8   -1.90    6.27
 -18  -1   8   -3.13    8.46
 -18   1   8    3.08    7.97
 -18  -1   7   53.38   11.52
 -18   1   7   62.25   12.58
  18   1  -7   39.39    8.88
  18  -1  -7   72.54   11.03
 -18  -1   7   64.79   13.92
 -18   1   7   66.86   13.36
 -18  -1   6   63.52   13.24
 -18   1   6   49.15   12.56
 -18  -1   6   54.77   11.82
 -18   1   6   56.01   11.81
 -18  -1   5   -2.59    8.07
 -18   1   5   -7.68    9.57
 -18  -1   5   14.97    7.82
 -18   1   5   13.16    8.02
 -18  -1   4  131.03   16.69
 -18   1   4   86.61   14.40
 -18  -1   4  110.44   14.19
 -18  -1   3   13.67    7.79
 -18   1   3   15.94    8.18
 -18  -1   3   35.84    8.10
 -18   1   3   37.03    8.77
 -18   1   2   86.86   13.31
 -18  -1   2   82.07   12.58
 -18   1   2   79.69   11.46
 -18  -1   2   79.53   10.96
 -18  -1   1   -2.08    7.23
 -18   1   1   -4.17    7.27
 -18  -1   1   -1.68    5.40
 -18   1   1    5.33    5.71
 -18  -1   0   -2.01    7.34
 -18   1   0   -2.03    7.26
 -18  -1   0   -1.61    5.46
 -18   1   0   -1.72    5.54
 -18  -1  -1    5.93    5.98
 -18   1  -1   10.10    7.72
 -18  -1  -1   28.06    6.78
 -18   1  -1    6.77    5.45
 -18  -1  -2   41.52    9.24
 -18   1  -2   77.38   11.75
 -18  -1  -2   64.42    9.12
 -18   1  -2   71.09   10.10
 -18  -1  -3    1.54    4.16
 -18   1  -3    3.46    4.48
  18  -1   4    2.92    8.80
 -18  -1  -4    9.48    5.09
 -18   1  -4    9.00    5.07
  18   1   5   96.92   16.56
  18  -1   5   67.44   14.54
  18  -1   6    2.90    8.47
  18   1   6   14.34    9.22
  18   1   7   97.73   16.41
  18  -1   7   70.14   14.33
  18   1   8  111.71   16.96
  18  -1   8  136.87   19.07
  18   1   9   14.29    9.19
  18  -1   9   11.58    8.15
  18  -1  10    5.76    7.77
  18   1  10   -2.87    8.08
  18   1  11   20.03   10.71
  18  -1  11   11.57    9.04
  18  -1  12    2.91    9.34
  18   1  12   -5.75    9.51
  18   1  13    2.86    8.34
 -18   2  15   -3.26    9.51
  18   2 -15   15.85    7.70
  18  -2 -15    6.76    6.34
 -18   2  14    6.20   10.26
 -18   2  14  -21.88   13.33
  18   2 -14   -2.21    5.44
  18  -2 -14   -2.19    6.83
 -18   2  13   56.17   13.59
 -18   2  13   45.37   14.28
  18   2 -13   71.17   12.30
  18  -2 -13   59.79   10.47
 -18   2  12   25.34   10.08
  18   2 -12   18.90    7.53
  18  -2 -12   12.44    6.69
 -18   2  12   26.71   10.75
  18   2 -11   -4.10    6.96
  18  -2 -11   -8.07    6.68
 -18   2  11   -9.53   11.08
 -18   2  10  180.87   22.03
  18   2 -10  198.18   18.40
  18  -2 -10  188.87   17.79
 -18  -2  10  159.81   22.44
 -18   2  10  223.02   24.96
 -18   2   9    2.85    8.31
  18   2  -9   -3.91    6.10
  18  -2  -9    1.92    5.99
 -18  -2   9   -3.36    9.08
 -18   2   9   -3.25    9.14
 -18   2   8   -2.69    6.94
  18   2  -8   -1.91    6.33
  18  -2  -8    3.77    5.68
 -18  -2   8    3.18    7.84
 -18   2   8   -6.16    9.61
 -18   2   7  -10.12    7.89
  18   2  -7    1.87    5.26
  18  -2  -7   -1.84    4.31
 -18  -2   7    2.99    7.74
 -18   2   7    5.82    8.49
 -18  -2   6  109.39   16.60
 -18   2   6  104.22   15.97
 -18   2   6   95.52   14.50
 -18  -2   5  144.58   17.76
 -18   2   5  118.82   16.65
 -18   2   5  177.73   17.83
 -18  -2   4   17.23    8.60
 -18   2   4   12.17    8.29
 -18   2   4   21.23    7.61
 -18  -2   3    4.63    6.98
 -18   2   3    2.31    5.96
 -18   2   3   -2.02    6.09
 -18  -2   2   -2.19    6.84
 -18   2   2   -4.41    6.88
 -18   2   2    1.93    4.98
 -18  -2   1   12.53    7.10
 -18   2   1    8.50    6.43
 -18   2   1   13.00    7.10
 -18  -2   0   -8.05    6.66
 -18   2   0   -3.62    5.99
 -18  -2  -1  142.27   15.32
 -18   2  -1  120.94   14.75
 -18   2  -1  153.66   14.94
 -18  -2  -2   -9.82    6.31
 -18   2  -2   -2.07    6.26
 -18   2  -2    1.79    4.64
  18  -2   3    5.85    8.84
 -18   2  -3    1.84    4.97
  18  -2   4   -2.95    9.19
 -18   2  -4   -1.91    5.16
  18  -2   5    2.96    8.32
  18  -2   6   23.61   10.34
  18   2   6   42.49   11.94
  18  -2   7   47.03   13.29
  18   2   7   59.84   13.64
  18   2   8    8.57    9.18
  18  -2   8    5.84    9.39
  18  -2   9   40.68   12.06
  18   2   9   39.82   12.02
  18  -2  10   32.11   11.89
  18   2  10   39.70   11.76
  18  -2  11   17.58   10.22
  18   2  11    2.85    8.01
  18   2  12  127.61   18.50
  18   2  13   -8.55    9.93
  18   3 -15   24.46    7.76
  18  -3 -15    6.64    6.24
 -18   3  14   18.37   12.22
 -18   3  14   53.22   13.86
  18   3 -14   41.37    9.68
  18  -3 -14   34.39    8.95
 -18   3  13   32.87   11.90
  18   3 -13   12.73    7.96
  18  -3 -13   18.87    7.86
 -18   3  13   21.20   12.02
  18   3 -12    2.07    5.58
  18  -3 -12    4.07    5.49
 -18   3  12    6.74    9.48
  18   3 -11   -2.02    4.99
  18  -3 -11    5.96    5.58
 -18   3  11   -6.43    8.68
  18   3 -10    1.98    5.35
  18  -3 -10   13.57    6.59
 -18   3  10    9.16    7.90
 -18  -3   9   61.53   15.91
 -18   3   9   52.14   13.61
  18   3  -9   62.04   10.25
  18  -3  -9   64.46   10.35
 -18   3   9   63.49   13.10
 -18  -3   8  145.58   20.15
 -18   3   8  114.50   17.75
  18   3  -8  123.44   14.38
  18  -3  -8  129.94   14.38
 -18   3   8  103.62   16.05
 -18   3   7  193.28   20.78
  18   3  -7  177.06   16.71
 -18  -3   7  177.10   21.35
 -18   3   7  146.56   19.65
 -18  -3   6   63.21   13.00
 -18   3   6   44.32   12.36
 -18   3   6   56.09   12.32
 -18  -3   5   13.48    7.87
 -18   3   5   13.08    7.63
 -18   3   5    2.30    6.73
 -18  -3   4    2.52    5.90
 -18   3   4   -2.47    6.40
 -18   3   4   -2.19    5.11
 -18  -3   3   -4.74    6.12
 -18   3   3    7.05    6.60
 -18   3   3   -2.10    5.17
 -18  -3   2   42.57    9.46
 -18   3   2   31.47    8.65
 -18   3   2   22.16    7.44
 -18  -3   1    2.13    4.98
 -18   3   1    4.33    5.60
 -18   3   1    7.79    5.47
 -18  -3   0   -4.10    5.06
 -18   3   0   -4.22    6.37
 -18   3   0   -5.72    5.56
 -18  -3  -1    1.99    5.60
 -18   3  -1    2.08    5.86
 -18   3  -1    5.65    5.30
 -18   3  -2    6.30    5.43
 -18  -3  -2    5.89    5.73
 -18   3  -2    7.61    5.55
 -18  -3  -3    1.97    4.34
 -18   3  -3   -4.30    5.29
  18  -3   3    2.97    7.68
 -18   3  -3    5.82    5.24
  18  -3   4   44.90   12.43
 -18   3  -4   38.37    8.45
  18  -3   5   30.08   11.05
  18  -3   6    2.99    9.04
  18  -3   7   38.73   11.47
  18   3   7   44.83   12.63
  18  -3   8   50.35   12.77
  18  -3   9   44.17   12.87
  18  -3  10   -2.96    8.62
  18  -3  11   11.74    8.26
  18   4 -14   21.10    7.43
  18  -4 -14   44.08    9.60
 -18   4  13    9.05    9.11
  18   4 -13    2.07    5.36
  18  -4 -13   12.24    6.56
 -18   4  13    7.11   10.00
  18   4 -12    8.10    6.11
  18  -4 -12   -1.99    6.20
 -18   4  12    6.83    9.60
  18  -4 -11  157.22   15.87
  18   4 -11  130.96   15.05
 -18   4  11  120.71   18.44
  18   4 -10   13.61    6.97
  18  -4 -10   20.88    6.81
 -18   4  10   18.64    9.40
 -18   4   9   79.55   15.20
  18   4  -9   95.46   12.39
  18  -4  -9   85.57   11.56
 -18  -4   9   89.95   18.15
 -18   4   9   94.80   17.18
 -18   4   8    8.38    7.54
  18   4  -8    1.87    4.84
  18  -4  -8    1.83    5.14
 -18  -4   8   -3.28    9.57
 -18   4   8   21.75   10.56
 -18  -4   7   15.56   10.57
 -18   4   7   -2.95    8.30
 -18   4   7    2.65    7.15
 -18  -4   6   23.51   10.79
 -18   4   6   30.85   10.76
 -18   4   6   32.86    9.50
 -18  -4   5   -5.53    9.14
 -18   4   5   -5.31    8.29
 -18   4   5   -4.80    7.25
 -18  -4   4   13.00    8.60
 -18   4   4   -7.57    8.35
 -18   4   4   -4.57    6.67
 -18  -4   3   -2.44    7.13
 -18   4   3    7.20    7.24
 -18   4   3    2.19    6.60
 -18  -4   2   27.68    8.83
 -18   4   2   20.65    8.02
 -18   4   2    8.43    5.95
 -18  -4   1   -6.57    7.45
 -18   4   1   -2.22    6.91
 -18   4   1    2.04    5.51
 -18  -4   0   66.96   11.35
 -18   4   0   83.98   12.59
 -18   4   0   70.59   11.07
 -18   4  -1   -2.12    5.95
 -18   4  -1    1.99    5.16
 -18  -4  -2   37.58    8.47
 -18   4  -2   61.32   10.81
 -18   4  -2   52.32   10.06
 -18   4  -3   30.10    8.43
 -18  -4  -3   27.44    7.54
  18  -4   3   15.05    9.99
 -18   4  -3   28.60    7.69
  18  -4   4   12.12    9.74
 -18   4  -4   10.57    5.72
  18  -4   5    6.09    8.88
 -18   4  -5   11.03    6.44
  18  -4   6   33.37   12.11
  18  -4   7    3.02    8.80
  18  -4   8   32.99   11.74
  18  -4   9   18.07   10.25
  18  -4  10    8.97   10.42
 -18   5  12    3.46   10.10
 -18   5  11   16.56   10.34
 -18   5  10    3.17    8.18
 -18   5   9    3.03    8.17
 -18   5   8   -5.75    8.09
 -18   5   7  -13.69    8.28
 -18   5   6   18.29    8.42
 -18   5   5   12.44    8.24
 -18   5   4  248.29   23.30
 -18   5   4  229.90   21.60
 -18   5   3   43.94   11.55
 -18   5   3   57.49   11.47
 -18   5   2   88.74   13.95
 -18   5   2  115.33   14.89
 -18   5   1    2.25    7.85
 -18   5   1   21.54    7.88
 -18   5   0   -4.25    6.83
 -18   5  -1   17.12    6.89
 -18   5  -1    8.40    6.76
 -18   5  -2   -2.12    5.48
 -18   5  -2    6.33    5.93
 -18   5  -3    2.14    6.24
  18  -5   4   15.37   10.19
 -18   5  -4   24.03    8.54
  18  -5   5   12.36    9.64
 -18   5  -5   13.58    7.29
  18  -5   6   40.19   12.59
 -18   5  -6   35.36    9.28
  18  -5   7   18.45   11.51
  18  -5   8   -3.06    8.60
  18  -5   9   18.22   11.37
 -18   6  10    3.24    8.74
 -18   6   9   -3.09    8.69
 -18   6   8    2.95    6.89
 -18   6   7   -2.83    8.55
 -18   6   6   -5.42    6.68
 -18   6   5    7.78    7.57
 -18   6   4   42.56   10.96
 -18   6   3   33.72   10.35
 -18   6   2   -6.98    8.89
 -18   6   1  180.09   18.68
 -18   6   0    4.45    7.57
 -18   6  -1  134.94   15.94
 -18   6  -2    2.19    5.92
 -18   6  -3    8.84    6.22
  18  -6   4   12.36   10.50
 -18   6  -4    4.49    5.54
  18  -6   5   15.57   11.15
 -18   6  -5   27.60    8.63
  18  -6   6   40.69   13.84
 -18   6  -6   26.06    8.53
  18  -6   7   40.49   13.15
  18  -6   8   -3.10    9.35
 -18   7   8   45.68   13.31
 -18   7   7   -2.92    9.64
 -18   7   6   25.18   10.03
 -18   7   5   -5.41    8.95
 -18   7   4   -2.60    7.02
 -18   7   3   75.13   13.50
 -18   7   2    2.44    6.59
 -18   7   1   33.21    9.13
 -18   7   0   -2.33    6.81
 -18   7  -1    2.31    5.96
 -18   7  -2   -2.28    5.89
 -18   7  -3   40.98   10.14
 -18   7  -4   16.04    7.16
 -19   0  15    7.58   12.87
 -19   0  15   -6.54    9.86
 -19   0  14    9.33   10.28
 -19   0  14    7.31   12.09
  19   0 -14   -4.56    7.32
 -19   0  13   10.54   13.14
  19   0 -13    4.45    5.20
  19   0 -12   -6.51    7.18
 -19   0  12    6.71   10.79
  19   0 -11   -4.25    7.22
 -19   0  11   -3.20    8.98
 -19   0  10   39.49   12.33
  19   0 -10   20.84    7.65
 -19   0  10   10.80    9.34
 -19   0   9    2.88    7.43
  19   0  -9   -4.07    6.15
 -19   0   9    3.41    8.81
 -19   0   8    8.13    8.19
  19   0  -8    9.98    6.03
 -19   0   8   -3.22    9.40
 -19   0   7   -3.04    9.47
 -19   0   7    2.55    7.45
 -19   0   6   25.73    9.48
 -19   0   6   19.23    8.41
 -19   0   5   -2.69    7.26
 -19   0   5   -2.26    6.60
 -19   0   4   15.20    8.19
 -19   0   4   42.66   10.02
 -19   0   3   -7.20    7.94
 -19   0   3   -4.03    6.66
 -19   0   2  169.82   18.45
 -19   0   2  176.03   16.84
 -19   0   1    2.21    6.20
 -19   0   1   -1.83    5.88
 -19   0   0    2.16    6.06
 -19   0   0   -5.30    5.68
 -19   0  -1    2.13    5.49
 -19   0  -1   -1.73    5.38
 -19   0  -2   89.52   12.94
 -19   0  -2   70.06   10.15
 -19   0  -3   -1.73    5.73
 -19   0  -4  115.46   13.17
  19   0   5   -6.10    9.21
 -19   0  -5   -1.86    4.34
  19   0   6   -3.06    8.25
  19   0   7    3.09    8.69
  19   0   8    9.24   10.47
  19   0   9   -3.07    8.94
  19   0  10   12.34    9.32
  19   0  11   -3.06    9.55
 -19   1  15   -3.30   10.28
 -19   1  14    3.72   10.85
 -19   1  14   -3.15    9.50
 -19   1  13    3.00    9.63
 -19   1  13   -7.12   10.00
 -19  -1  13    3.44   10.72
  19   1 -13   -2.22    6.71
  19  -1 -13   -4.42    7.10
 -19  -1  12   36.19   13.85
 -19   1  12   37.04   11.80
  19   1 -12   39.12    9.34
  19  -1 -12   23.73    7.78
 -19   1  12   23.78   11.29
 -19   1  11   10.84    9.21
  19   1 -11   -2.13    6.84
  19  -1 -11   -2.11    6.98
 -19  -1  11    3.14    9.15
 -19   1  11    3.24    8.39
 -19  -1  10   14.95   11.41
 -19   1  10   21.55   10.46
  19   1 -10    2.08    7.08
  19  -1 -10    2.06    7.20
 -19  -1  10   29.12   13.31
 -19   1  10   -3.57    9.24
 -19  -1   9    8.51    8.56
 -19   1   9    2.91    7.86
  19   1  -9    6.13    5.28
  19  -1  -9    2.02    5.23
 -19  -1   9    3.44   10.04
 -19   1   9   -3.39   10.57
 -19  -1   8   56.34   12.45
 -19   1   8   49.36   11.19
  19   1  -8   54.08    9.72
  19  -1  -8   41.66    8.86
 -19  -1   8   22.78   10.55
 -19   1   8   19.27   10.41
 -19  -1   7   18.40   10.42
 -19   1   7   -3.03    9.45
 -19  -1   7    5.06    7.37
 -19   1   7    2.58    7.26
 -19  -1   6   11.53    8.99
 -19   1   6   17.13    9.45
 -19  -1   6    4.76    7.66
 -19   1   6   12.19    8.50
 -19  -1   5   13.53    8.70
 -19   1   5    5.39    8.13
 -19  -1   5   15.72    7.83
 -19   1   5    2.30    6.71
 -19  -1   4   40.72   11.30
 -19   1   4   50.84   11.96
 -19  -1   4   33.85    9.12
 -19   1   4   30.36    8.88
 -19  -1   3   -2.41    9.56
 -19   1   3   -4.83    9.03
 -19  -1   3  -13.86    7.72
 -19   1   3   -4.11    7.69
 -19  -1   2  105.53   14.56
 -19   1   2  134.05   16.13
 -19   1   2   86.35   12.69
 -19  -1   2  108.70   13.18
 -19  -1   1   48.63   10.93
 -19   1   1   53.48   10.88
 -19  -1   1   53.55    9.93
 -19   1   1   66.03   10.68
 -19  -1   0  113.56   14.54
 -19   1   0   87.34   13.26
 -19  -1   0   90.71   11.70
 -19   1   0   87.92   11.79
 -19  -1  -1   25.25    8.11
 -19   1  -1   40.99    9.73
 -19  -1  -1   38.19    7.95
 -19   1  -1   29.03    7.57
 -19  -1  -2   -2.11    5.92
 -19   1  -2    4.35    5.87
 -19  -1  -2    3.26    4.41
 -19   1  -2    1.81    4.45
 -19   1  -3    2.22    5.75
 -19  -1  -3   10.69    5.78
 -19  -1  -3   14.75    5.43
 -19   1  -3   10.98    5.53
  19  -1   4   73.33   14.86
 -19  -1  -4   53.40    8.93
 -19   1  -4   81.36   11.37
  19  -1   5   30.95   11.59
 -19   1  -5   15.84    6.21
  19   1   6   30.26   11.36
  19  -1   6   28.00   11.16
  19  -1   7   -9.34    9.71
  19   1   7   -3.05    8.23
  19   1   8   24.40   11.40
  19  -1   8   -3.10    8.71
  19   1   9   18.22   10.61
  19  -1   9   21.59   10.77
  19   1  10   48.89   13.99
  19  -1  10   49.54   13.55
  19   1  11    3.04    8.54
 -19   2  14   85.74   16.67
 -19   2  14   78.96   18.53
 -19   2  13   -3.03   10.29
  19   2 -13    2.20    6.19
  19  -2 -13   -4.36    5.88
 -19   2  13    3.60   11.22
 -19   2  12   14.44    8.45
  19   2 -12   28.14    8.29
  19  -2 -12   12.78    6.46
 -19   2  12   30.90   12.85
  19   2 -11    2.12    5.96
  19  -2 -11   -4.18    6.31
 -19   2  11    6.54    9.19
 -19   2  10   77.87   15.52
  19   2 -10   68.58   10.98
  19  -2 -10   53.16    9.96
 -19  -2  10   81.16   16.92
 -19   2  10   64.20   15.64
 -19   2   9    8.83    7.96
  19   2  -9    4.08    6.16
  19  -2  -9   18.04    6.64
 -19  -2   9   13.98   10.90
 -19   2   9   16.94    9.89
 -19   2   8   80.57   14.64
  19   2  -8  106.08   13.35
  19  -2  -8   68.70   11.29
 -19  -2   8   59.53   14.85
 -19   2   8   96.41   16.67
 -19  -2   7    6.24    8.76
 -19   2   7    6.08    8.87
 -19   2   7    5.24    6.46
 -19  -2   6   64.48   13.53
 -19   2   6   60.26   13.81
 -19   2   6   76.80   13.45
 -19  -2   5   -2.75    8.31
 -19   2   5   -8.14    7.33
 -19   2   5   -2.34    8.37
 -19  -2   4   18.12    8.56
 -19   2   4   -2.58    7.24
 -19   2   4    2.22    5.99
 -19  -2   3   -4.88    6.59
 -19   2   3    2.45    6.61
 -19   2   3    4.22    5.46
 -19  -2   2   -6.97    7.46
 -19   2   2    2.35    6.34
 -19   2   2   -2.04    6.36
 -19  -2   1   28.87    8.35
 -19   2   1   15.90    7.56
 -19   2   1   33.47    8.59
 -19  -2   0   53.85   10.65
 -19   2   0   59.82   10.81
 -19   2   0   49.98    9.31
 -19  -2  -1   -2.10    5.68
 -19   2  -1   -2.20    6.65
 -19   2  -1   -5.69    5.53
 -19  -2  -2   16.68    7.27
 -19   2  -2    8.84    6.45
 -19   2  -2    5.73    4.95
 -19  -2  -3   14.75    6.82
 -19   2  -3   29.35    8.66
 -19   2  -3   31.03    7.75
  19  -2   4    3.10    8.38
 -19   2  -4    8.04    5.87
  19  -2   5    3.13    8.79
 -19   2  -5    2.10    5.44
  19  -2   6   87.97   16.79
  19   2   6   59.25   14.26
  19  -2   7   -3.13   10.62
  19   2   7   -3.00    8.76
  19  -2   8   80.89   16.12
  19   2   8   72.46   15.12
  19   2   9   12.09   11.05
  19  -2   9   -3.13    9.75
  19   2  10   21.27   12.32
  19  -2  10   15.52   10.84
  19   2  11   -3.02    9.72
 -19   3  13   21.41   10.46
  19   3 -13   36.88    9.49
  19  -3 -13   47.13   10.09
 -19   3  13   29.02   12.70
  19   3 -12  128.15   15.51
  19  -3 -12  134.09   15.42
 -19   3  12  142.59   21.34
  19   3 -11   75.43   12.13
  19  -3 -11   57.36   10.98
 -19   3  11   82.81   16.30
  19   3 -10   76.08   11.56
  19  -3 -10   68.46   10.77
 -19   3  10   47.23   12.95
 -19   3   9   26.82   10.20
  19   3  -9   40.40    8.72
  19  -3  -9   45.34    9.18
 -19  -3   9   31.99   12.14
 -19   3   9   33.95   13.02
 -19   3   8    2.82    6.95
  19   3  -8    5.95    5.79
  19  -3  -8   -1.94    5.02
 -19  -3   8   16.82   10.81
 -19   3   8    6.46    8.72
 -19  -3   7    6.36    9.60
 -19   3   7   -6.13    8.27
 -19   3   7    2.68    6.93
 -19  -3   6    5.99    8.74
 -19   3   6    5.80    7.16
 -19   3   6   20.35    7.69
 -19  -3   5   -2.82    6.95
 -19   3   5   -2.75    7.73
 -19   3   5   -4.82    6.51
 -19  -3   4    7.95    6.54
 -19   3   4   15.71    8.42
 -19   3   4    2.29    6.70
 -19  -3   3    2.50    6.16
 -19   3   3   -2.49    6.15
 -19   3   3   -2.20    5.67
 -19  -3   2    2.37    5.54
 -19   3   2    2.39    5.90
 -19   3   2    4.25    5.50
 -19   3   1   -2.32    5.99
 -19  -3   1   -4.52    6.10
 -19   3   1   -2.06    6.02
 -19  -3   0    8.72    5.39
 -19   3   0   18.07    7.48
 -19   3   0    8.08    5.47
 -19  -3  -1   46.58    9.57
 -19   3  -1   29.14    8.48
 -19   3  -1   38.27    8.84
 -19  -3  -2    2.08    4.30
 -19   3  -2    2.24    4.94
 -19   3  -2   -2.02    5.88
 -19  -3  -3   12.54    5.66
 -19   3  -3    6.86    6.68
 -19   3  -3   16.46    6.43
  19  -3   4    3.15    8.14
 -19   3  -4    4.25    6.41
  19  -3   5   12.68    9.90
 -19   3  -5   22.13    7.54
  19  -3   6   19.09   11.11
  19  -3   7   44.34   12.44
  19  -3   8    9.45   10.13
  19  -3   9    6.33    9.56
  19   4 -13   40.25    9.68
  19  -4 -13   20.97    7.73
  19   4 -12   -2.08    5.86
  19  -4 -12    2.05    6.40
  19   4 -11   -4.10    6.18
  19  -4 -11   -4.02    4.95
 -19   4  11   10.08   10.14
  19   4 -10   18.19    6.88
  19  -4 -10    1.97    5.34
 -19   4  10   32.04   11.72
 -19   4   9    3.04    8.22
  19   4  -9   15.87    7.10
  19  -4  -9   13.57    6.78
 -19  -4   9   25.21   11.59
 -19  -4   8   10.26    9.63
 -19   4   8   19.47   10.74
 -19   4   8   20.19    9.29
 -19  -4   7   19.46    9.12
 -19   4   7    3.09    9.02
 -19   4   7   16.52    9.12
 -19  -4   6   12.26    9.26
 -19   4   6    2.94    7.61
 -19   4   6    7.87    7.65
 -19  -4   5   -8.67   10.56
 -19   4   5   -2.79    7.86
 -19   4   5   -2.50    8.48
 -19  -4   4   95.54   15.34
 -19   4   4   82.47   14.08
 -19   4   4   80.98   13.33
 -19  -4   3   -5.15    8.75
 -19   4   3   -5.07    8.84
 -19   4   3   -2.30    6.95
 -19  -4   2   77.94   13.32
 -19   4   2   97.43   14.48
 -19   4   2   71.18   12.46
 -19  -4   1   -2.32    7.68
 -19   4   1   -2.36    6.62
 -19   4   1   -2.16    6.07
 -19  -4   0   11.11    7.55
 -19   4   0    4.61    6.48
 -19   4   0   -2.14    6.23
 -19  -4  -1   12.91    8.06
 -19   4  -1   15.88    7.31
 -19   4  -1   14.80    6.81
 -19   4  -2   52.24   10.15
 -19  -4  -2   50.35    9.68
 -19   4  -2   42.61    9.25
 -19  -4  -3    6.25    5.14
 -19   4  -3    4.58    5.36
 -19   4  -3    6.49    5.85
 -19  -4  -4    8.35    5.15
 -19   4  -4    2.35    6.08
  19  -4   4    6.36    9.60
 -19   4  -4    4.46    5.21
  19  -4   5    9.61    9.99
 -19   4  -5   13.83    6.74
  19  -4   6    3.22    9.04
 -19   4  -6    2.41    5.63
  19  -4   7   51.19   14.22
  19  -4   8   16.07   10.35
 -19   5  10   -3.26   10.16
 -19   5   9   -3.12    8.42
 -19   5   8   62.41   14.81
 -19   5   7   16.99    8.85
 -19   5   6   59.57   12.66
 -19   5   5    2.60    7.59
 -19   5   4    2.49    6.73
 -19   5   3   47.98   11.50
 -19   5   2  121.64   15.94
 -19   5   1   38.73   10.44
 -19   5   0   65.24   12.11
 -19   5  -1   26.70    8.72
 -19   5  -2   24.58    8.58
 -19   5  -3    2.26    5.58
  19  -5   4    6.40    9.34
 -19   5  -4    4.62    5.10
  19  -5   5    9.72   10.73
 -19   5  -5   14.25    6.94
  19  -5   6   -6.51   10.46
 -19   5  -6    4.92    6.06
  19  -5   7   -3.25    9.15
 -19   6   7   -2.93    7.21
 -19   6   6   11.23    9.29
 -19   6   5   35.22   10.20
 -19   6   4   -2.60    7.86
 -19   6   3   88.44   14.26
 -19   6   2   17.16    8.98
 -19   6   1   16.83    8.81
 -19   6   0    4.71    6.62
 -19   6  -1   18.71    7.32
 -19   6  -2    7.02    6.83
 -19   6  -3   37.38    9.38
  19  -6   5    3.25    9.49
 -20   0  14    7.52   12.09
 -20   0  13   -7.21   11.93
  20   0 -12   13.43    7.42
 -20   0  12   20.75   11.45
  20   0 -11   -2.19    5.67
 -20   0  11   -3.30    8.52
 -20   0  10    6.27    8.81
  20   0 -10    6.47    6.06
 -20   0  10    3.72   10.46
 -20   0   9    2.97    8.35
  20   0  -9    2.12    5.47
 -20   0   9  -14.11   10.65
 -20   0   8  133.59   19.53
 -20   0   8  137.31   18.23
 -20   0   7   -6.31    9.20
 -20   0   7   18.50    8.74
 -20   0   6    2.98    8.38
 -20   0   6   29.92    9.73
 -20   0   5    5.62    6.92
 -20   0   5   -2.37    6.91
 -20   0   4    5.31    7.17
 -20   0   3    2.54    7.13
 -20   0   3    2.12    6.81
 -20   0   2   92.46   13.60
 -20   0   2   78.82   11.84
 -20   0   1   -4.70    6.85
 -20   0   1   -3.88    6.41
 -20   0   0   64.34   11.12
 -20   0   0   63.68   10.25
 -20   0  -1   -2.27    6.12
 -20   0  -1    1.85    4.77
 -20   0  -2    9.08    6.39
 -20   0  -2    7.30    4.93
 -20   0  -3   -2.31    5.97
 -20   0  -3   -3.65    5.13
 -20   0  -4   13.11    5.85
 -20   0  -5    3.88    5.24
  20   0   6   35.30   12.06
 -20   0  -6   34.61    8.48
  20   0   7   -6.49   11.32
  20   0   8   22.83   11.40
  20   0   9   -3.25    9.47
 -20   1  14    3.21   10.31
 -20   1  13   33.66   12.43
 -20   1  13   21.95   13.41
 -20   1  12   11.65    9.63
  20   1 -12    4.48    5.80
  20  -1 -12    8.90    6.26
 -20   1  12   13.98   10.90
 -20   1  11   -2.78   10.15
  20   1 -11    8.80    6.65
  20  -1 -11   23.98    8.33
 -20   1  11    9.99    9.36
 -20   1  10   50.23   12.52
 -20   1  10   66.61   14.55
  20   1 -10   64.85   11.22
  20  -1 -10   55.67   10.73
 -20  -1  10   45.15   15.36
 -20   1  10   48.10   14.83
 -20   1   9   -3.00    7.40
  20   1  -9  -12.74    6.83
  20  -1  -9   -4.21    6.96
 -20  -1   9   -7.12    9.62
 -20   1   9    3.51   11.62
 -20  -1   8    3.37    8.71
 -20   1   8    6.66    8.99
 -20   1   8   -2.83    7.32
 -20  -1   7    6.36    8.22
 -20   1   7    3.15    8.51
 -20   1   7    2.67    7.50
 -20  -1   6   26.97   10.81
 -20   1   6   53.58   12.58
 -20   1   6   53.04   12.07
 -20  -1   5   31.15   10.15
 -20   1   5   22.54   10.10
 -20   1   5   21.47    8.56
 -20  -1   4   18.72    9.12
 -20   1   4   18.75    9.37
 -20   1   4   25.04    8.54
 -20  -1   3   40.61   11.29
 -20   1   3   33.17   10.05
 -20   1   3   54.12   10.09
 -20  -1   2   -2.43    7.81
 -20   1   2   22.08    8.97
 -20   1   2    8.28    6.25
 -20  -1   1   44.62   10.21
 -20   1   1   66.80   12.35
 -20   1   1   59.94   10.28
 -20  -1   0   20.51    7.81
 -20   1   0   37.25    9.99
 -20   1   0   35.23    8.82
 -20  -1  -1    2.25    7.01
 -20   1  -1   13.80    7.61
 -20   1  -1   -1.92    5.20
 -20  -1  -2  105.17   14.14
 -20   1  -2   62.47   11.20
 -20   1  -2   89.89   12.09
 -20  -1  -3   -2.27    5.86
 -20   1  -3   -2.36    5.51
 -20   1  -3    1.94    5.01
 -20   1  -4    1.99    5.60
  20  -1   5   -6.45    9.07
 -20   1  -5    2.07    4.84
  20   1   6   28.39   12.35
  20  -1   6   49.02   13.53
 -20   1  -6   32.53    8.20
  20   1   7   19.18   10.89
  20  -1   7   23.00   11.48
  20  -1   8   49.24   13.88
  20   1   8   48.19   13.59
  20   1   9   25.97   12.68
 -20   2  13    3.09    9.34
 -20   2  12   68.02   14.75
 -20   2  12   59.93   15.21
  20   2 -11    2.19    6.38
  20  -2 -11    2.15    6.05
 -20   2  11   13.43   10.79
 -20   2  10   57.60   13.78
  20   2 -10   51.73    9.97
  20  -2 -10   46.53    9.79
 -20  -2  10   72.47   18.66
 -20   2  10   51.73   15.08
 -20   2   9   24.23   11.08
  20   2  -9    2.12    5.73
  20  -2  -9   12.47    6.29
 -20  -2   9   21.67   11.61
 -20   2   9   17.55   11.61
 -20  -2   8   -6.85    8.85
 -20   2   8  -10.01    9.74
 -20   2   8    5.73    7.40
 -20  -2   7   16.17   10.40
 -20   2   7   12.68    9.90
 -20   2   7   13.54    8.71
 -20  -2   6   -3.05    8.56
 -20   2   6    6.00    8.76
 -20   2   6    7.73    7.24
 -20  -2   5   -5.74    7.75
 -20   2   5    5.70    7.36
 -20   2   5   -2.45    6.60
 -20  -2   4    2.71    7.00
 -20   2   4   -4.65    6.01
 -20  -2   3    2.57    6.95
 -20   2   3   -7.75    6.97
 -20   2   3   -4.44    6.71
 -20  -2   2   34.32    9.22
 -20   2   2   34.95    9.59
 -20   2   2   23.67    7.94
 -20  -2   1    2.36    5.81
 -20   2   1   16.95    7.55
 -20   2   1    2.08    5.39
 -20  -2   0   -4.58    6.67
 -20   2   0   -2.37    6.65
 -20   2   0   -2.03    5.49
 -20  -2  -1   58.14   10.71
 -20   2  -1   47.02   10.32
 -20   2  -1   34.44    8.50
 -20  -2  -2   44.41    9.90
 -20   2  -2   40.14    9.84
 -20   2  -2   40.42    9.03
 -20  -2  -3   -2.23    5.21
 -20   2  -3    2.40    6.20
 -20   2  -3    4.10    6.19
 -20   2  -4  118.55   15.81
 -20  -2  -4   93.34   13.53
 -20   2  -4  101.46   13.56
  20  -2   5    6.55    9.92
 -20   2  -5   37.35   10.01
  20  -2   6  151.64   21.05
 -20   2  -6  177.14   18.50
  20  -2   7   -3.31   10.64
  20   2   7    3.12    8.43
  20   2   8    3.16    9.86
  20   2   9   15.87   11.87
  20   3 -11   12.96    6.96
  20  -3 -11   10.59    6.82
 -20   3  11   17.00   10.61
  20   3 -10   59.70   11.18
  20  -3 -10   41.65    9.79
 -20   3  10   74.40   15.65
 -20   3   9    9.19    8.28
  20   3  -9   12.59    7.14
  20  -3  -9   14.36    7.51
 -20  -3   9   14.70   11.46
 -20   3   9   -3.52   11.32
 -20  -3   8   10.46   10.87
 -20   3   8   13.43    9.07
 -20   3   8    2.92    7.88
 -20  -3   7   -3.30    8.52
 -20   3   7   -3.20    8.98
 -20   3   7   11.06    8.62
 -20  -3   6   -3.11    8.05
 -20   3   6    6.08    8.54
 -20   3   6   -2.63    8.70
 -20   3   5   -5.78    6.76
 -20  -3   5    5.87    7.58
 -20   3   5    5.04    7.61
 -20  -3   4    5.55    7.50
 -20   3   4   -5.51    8.31
 -20   3   4    2.40    6.22
 -20  -3   3   49.88   11.83
 -20   3   3   21.05    8.80
 -20   3   3   50.76   10.87
 -20  -3   2   -4.99    8.26
 -20   3   2   -7.63    8.41
 -20   3   2   -2.24    6.99
 -20  -3   1   45.42   10.66
 -20   3   1   54.38   11.67
 -20   3   1   39.30    9.60
 -20  -3   0   53.20   11.25
 -20   3   0   62.72   11.72
 -20   3   0   40.96    9.37
 -20  -3  -1   -2.25    7.22
 -20   3  -1   -2.39    6.19
 -20   3  -1   -2.13    5.99
 -20  -3  -2   62.08   10.77
 -20   3  -2   31.24    8.92
 -20   3  -2   47.23   10.02
 -20  -3  -3   -4.43    5.46
 -20   3  -3    9.71    6.82
 -20   3  -3    2.16    5.60
 -20  -3  -4   20.13    7.02
 -20   3  -4   29.91    9.14
 -20   3  -4   20.06    7.61
  20  -3   5    6.64    9.32
 -20   3  -5    2.31    5.70
  20  -3   6    3.34    9.73
 -20   3  -6    2.41    6.24
  20  -3   7  100.49   17.67
  20   4 -10   14.62    7.98
  20  -4 -10    2.04    6.37
 -20  -4   9   18.66   12.69
 -20   4   9   38.90   12.64
 -20   4   9    6.25    8.80
 -20  -4   8   39.02   13.89
 -20   4   8   37.10   13.21
 -20   4   8   38.80   11.71
 -20  -4   7   13.46   10.16
 -20   4   7    3.22    8.71
 -20   4   7    8.52    8.58
 -20  -4   6   54.24   14.00
 -20   4   6   67.61   13.91
 -20   4   6   56.96   12.50
 -20  -4   5   12.06    8.80
 -20   4   5    8.79    8.56
 -20   4   5   13.02    8.38
 -20  -4   4    8.55    8.32
 -20   4   4   14.03    8.76
 -20   4   4   19.95    8.03
 -20  -4   3   -5.39    8.13
 -20   4   3   -2.69    7.56
 -20   4   3    2.42    5.96
 -20  -4   2   48.69   11.26
 -20   4   2   43.97   10.43
 -20   4   2   63.27   11.55
 -20  -4   1   -2.45    7.38
 -20   4   1   -2.51    7.05
 -20   4   1   -2.30    5.95
 -20  -4   0   44.64   10.47
 -20   4   0   41.87   10.10
 -20   4   0   47.45   10.39
 -20  -4  -1   13.68    7.11
 -20   4  -1    9.70    6.82
 -20   4  -1    4.51    5.84
 -20  -4  -2   -4.44    6.24
 -20   4  -2    4.84    6.81
 -20   4  -2   -2.25    6.08
 -20  -4  -3  118.79   14.85
 -20   4  -3  136.90   16.47
 -20   4  -3  137.12   15.98
 -20  -4  -4   -2.21    5.16
 -20   4  -4    9.95    7.51
 -20   4  -4   -2.34    6.82
 -20   4  -5   97.46   14.64
 -20  -4  -5   91.81   13.46
 -20   4  -5  101.34   14.45
  20  -4   5   80.30   17.01
 -20   5   6   14.06    8.78
 -20   5   5    5.39    7.28
 -20   5   4   28.69   10.21
 -20   5   3   12.59    7.86
 -20   5   2   41.85    9.89
 -20   5   1    4.81    6.75
 -20   5   0    4.76    6.94
 -20   5  -1   47.39   10.41
 -20   5  -2    4.72    6.37
 -21   0  12   56.73   15.01
 -21   0  11  -10.15   10.55
 -21   0  10  145.55   22.09
 -21   0  10  138.40   20.21
 -21   0   9   -7.27   11.34
 -21   0   9   -3.05    9.52
 -21   0   8   24.14   10.83
 -21   0   8   58.01   13.44
 -21   0   7   -3.27    9.53
 -21   0   7   -2.74    9.06
 -21   0   6  151.77   20.19
 -21   0   6  155.37   18.62
 -21   0   5   11.74    7.59
 -21   0   5   -4.91    8.98
 -21   0   4   50.21   11.51
 -21   0   4   79.10   13.01
 -21   0   3   -2.67    5.90
 -21   0   3   -6.68    7.95
 -21   0   2    5.14    6.34
 -21   0   2    6.38    5.75
 -21   0   1    7.51    7.04
 -21   0   1   -2.05    5.29
 -21   0   0   -2.44    5.38
 -21   0   0    6.00    6.04
 -21   0  -1   -2.42    6.26
 -21   0  -1    1.95    4.57
 -21   0  -2    4.82    5.32
 -21   0  -2    5.84    4.80
 -21   0  -3   -4.88    6.02
 -21   0  -3   -1.94    5.46
 -21   0  -4   95.07   14.21
 -21   0  -4  100.64   12.86
 -21   0  -5   -6.10    5.94
 -21   0  -6    2.12    5.95
 -21   0  -7   -2.22    6.49
 -21   1  11   -3.41    9.57
 -21  -1  10   30.95   13.55
 -21   1  10   64.78   16.05
 -21   1  10   32.51   12.23
 -21  -1   9   -7.34   11.79
 -21   1   9    7.24   10.93
 -21   1   9   -3.08    8.65
 -21  -1   8   31.29   12.44
 -21   1   8   20.67   11.42
 -21   1   8   17.45   10.42
 -21  -1   7  148.01   20.55
 -21   1   7  137.27   20.11
 -21   1   7  118.98   17.34
 -21  -1   6   28.03   10.65
 -21   1   6   31.02   11.66
 -21   1   6   47.14   11.61
 -21  -1   5    2.95    7.62
 -21   1   5    8.84    7.27
 -21   1   5   12.44    8.00
 -21  -1   4    2.79    7.22
 -21   1   4   -5.61    7.25
 -21   1   4   -2.36    6.89
 -21  -1   3   42.74   11.50
 -21   1   3   35.02    9.74
 -21   1   3   54.49   10.58
 -21  -1   2    2.56    7.47
 -21   1   2    2.60    7.85
 -21   1   2   10.91    6.80
 -21  -1   1    7.47    7.00
 -21   1   1   15.22    7.66
 -21   1   1    8.43    5.93
 -21  -1   0    2.42    6.25
 -21   1   0   -4.96    7.73
 -21   1   0   -2.07    4.84
 -21  -1  -1   -2.39    6.45
 -21   1  -1   -4.92    5.76
 -21   1  -1    2.03    5.26
 -21  -1  -2   59.54   11.47
 -21   1  -2   46.68   10.50
 -21   1  -2   67.18   11.06
 -21  -1  -3    4.79    5.90
 -21   1  -3    7.48    6.15
 -21   1  -3    2.06    5.07
 -21  -1  -4   14.68    7.15
 -21   1  -4   17.91    7.74
 -21   1  -4   14.68    6.96
 -21   1  -5   53.91   10.66
 -21   1  -6   15.75    7.03
  21  -1   6   10.17    9.53
 -21   1  -7   14.18    6.91
 -21   2  11   46.08   13.19
 -21   2   9  -12.42   10.55
 -21  -2   9   14.88   11.96
 -21   2   9   -7.26   10.20
 -21   2   8   11.76    9.72
 -21  -2   8   -3.53    9.13
 -21   2   8   20.74   11.44
 -21   2   7   22.39   10.02
 -21  -2   7   16.69   10.75
 -21   2   7   23.02   11.20
 -21   2   6    2.66    8.04
 -21  -2   6    6.31    8.15
 -21   2   6   12.51   10.05
 -21   2   5    2.53    6.24
 -21  -2   5    5.98    7.37
 -21   2   5    2.98    8.06
 -21   2   4   -2.43    7.34
 -21  -2   4   -5.66    9.62
 -21   2   4    2.85    8.00
 -21   2   3   -2.33    7.04
 -21  -2   3    2.69    6.96
 -21   2   3   -5.46    8.51
 -21   2   2   13.58    7.50
 -21  -2   2   12.92    7.55
 -21   2   2   21.16    9.00
 -21   2   1   -4.40    6.85
 -21  -2   1   -2.49    6.44
 -21   2   1    2.58    7.77
 -21   2   0  138.69   15.90
 -21  -2   0  118.88   15.60
 -21   2   0  144.52   17.62
 -21   2  -1    2.14    5.78
 -21  -2  -1   -4.76    6.95
 -21   2  -1   -7.52    7.31
 -21   2  -2   25.78    8.26
 -21   2  -2   35.20    9.03
 -21  -2  -2   21.19    7.40
 -21   2  -3   -2.18    4.80
 -21  -2  -3   -2.36    5.52
 -21   2  -3   -2.55    5.96
 -21   2  -4   17.79    6.95
 -21  -2  -4    9.60    7.01
 -21   2  -4    7.83    7.06
 -21   2  -5    6.89    6.21
 -21  -3   9    3.78   10.22
 -21   3   9    3.64   10.62
 -21   3   8    5.99    8.44
 -21  -3   8   21.55   11.21
 -21   3   8   31.33   12.15
 -21   3   7    5.69    7.36
 -21  -3   7  -10.22   10.28
 -21   3   7   13.28   10.67
 -21   3   6    2.73    6.73
 -21  -3   6   -6.44   10.64
 -21   3   6   -6.33   10.18
 -21   3   5   33.88   10.05
 -21  -3   5   42.74   12.67
 -21   3   5   48.34   12.09
 -21   3   4   22.63    8.58
 -21  -3   4   31.80   10.83
 -21   3   4   14.50    9.35
 -21   3   3    4.84    6.80
 -21  -3   3    8.26    8.31
 -21   3   3   11.13    9.46
 -21   3   2   77.86   12.70
 -21  -3   2   62.95   12.50
 -21   3   2   64.70   13.34
 -21   3   1   11.50    7.39
 -21  -3   1    5.04    6.81
 -21   3   1   -2.63    7.38
 -21   3   0   -4.55    6.87
 -21  -3   0    2.44    6.60
 -21   3   0   -2.59    8.06
 -21   3  -1   -4.50    6.08
 -21  -3  -1    4.78    6.72
 -21   3  -1   -2.55    7.17
 -21   3  -2    9.06    7.50
 -21  -3  -2   23.46    8.59
 -21   3  -2    7.67    6.92
 -21   3  -3   71.19   12.35
 -21  -3  -3   79.55   12.71
 -21   3  -3   49.13   11.09
 -21   3  -4   73.88   13.34
 -21  -3  -4   54.27   10.78
 -21  -3  -5   45.78   10.42
 -21   3  -5   48.90   11.71
 -21  -4   8   10.96   11.04
 -21   4   8   17.49   11.58
 -21  -4   7   13.92   10.52
 -21   4   7   20.11   10.78
 -21  -4   6   33.00   11.83
 -21   4   6   25.64   10.04
 -21  -4   5   -6.25   10.62
 -21   4   5   -3.07    8.63
 -21   4   4   26.07    9.35
 -21  -4   4   23.75   11.13
 -21   4   4   23.55    9.77
 -21   4   3    2.52    6.80
 -21  -4   3   -5.63    8.78
 -21   4   3   -2.84    7.98
 -21   4   2    2.46    6.36
 -21  -4   2   -2.68    8.08
 -21   4   2    2.74    6.76
 -21   4   1   19.39    8.05
 -21  -4   1   25.72    9.64
 -21   4   1   21.33    9.09
 -21   4   0   -2.38    7.43
 -21  -4   0   -2.48    7.22
 -21  -4  -1   38.53   10.00
 -21   4  -1   28.59    9.13
 -21  -4  -2   21.22    7.80
 -21   4  -2    2.58    6.04
 -21  -4  -3   11.60    6.54
 -21   4  -3   18.19    8.36
 -21  -4  -4    6.97    6.27
 -21   4  -4   -2.64    7.12
 -22   0   9   -3.14    9.47
 -22   0   8   74.32   15.24
 -22   0   7   -2.82    9.05
 -22   0   6   75.09   14.57
 -22   0   6   76.98   15.84
 -22   0   5   -9.18   10.93
 -22   0   4   70.37   13.19
 -22   0   4   67.20   14.24
 -22   0   3  -16.87    9.31
 -22   0   2    8.93    7.18
 -22   0   2   -8.13    8.97
 -22   0   1   -4.31    6.92
 -22   0   1   -2.65    9.68
 -22   0   0  103.24   14.04
 -22   0   0  111.51   16.34
 -22   0  -1   -6.24    8.26
 -22   1   7   -2.84    8.85
 -22   1   6   32.36   10.74
 -22  -1   6   25.76   10.96
 -22   1   6    3.22    9.06
 -22   1   5   38.77   10.90
 -22  -1   5   33.73   11.51
 -22   1   5   21.55   10.79
 -22   1   4   22.19    8.65
 -22  -1   4   29.22   10.96
 -22   1   4   35.34   12.61
 -22   1   3    2.38    6.15
 -22  -1   3   -2.80    7.57
 -22   1   3  -11.35    9.12
 -22  -1   2   16.18    8.44
 -22   1   2    8.24    7.75
 -22   1   1    8.94    6.75
 -22  -1   1    7.88    7.10
 -22   1   1    5.38    7.56
 -22   1   0   10.91    7.42
 -22  -1   0    5.15    6.96
 -22   1   0   13.17    8.22
 -22   1  -1   80.02   12.41
 -22  -1  -1   53.13   11.25
 -22   1  -1   88.88   14.48
 -22   1  -2   15.14    6.76
 -22   1  -3   64.90   11.41
 -22   1  -4   13.20    7.87
 -22   2   6    8.25    8.03
 -22   2   5   -2.63    7.94
 -22  -2   5    3.10    8.01
 -22   2   5   -3.11   10.00
 -22   2   4   60.85   12.10
 -22  -2   4   32.51   10.65
 -22   2   4   29.92   11.27
 -22   2   3    2.44    7.36
 -22  -2   3    8.46    7.61
 -22   2   3    8.64    8.69
 -22   2   2   83.14   13.23
 -22  -2   2   78.70   14.12
 -22   2   2   67.16   13.35
 -22   2   1    2.31    6.24
 -22  -2   1   -2.63    7.40
 -22   2   1   -2.73    8.25
 -22   2   0   -2.29    6.67
 -22  -2   0   -2.56    7.48
 -22   2   0   -8.08    7.57
 -22   2  -1   -4.55    7.09
 -22   2  -1    2.68    6.60
 -22   3   4   15.22    9.20
 -22  -3   3    2.87    8.05
 -22   3   3    5.87    7.59
 -22  -3   2    5.50    8.02
 -22   3   2   -2.85    8.02
 -22  -3   1    7.97    7.75
 -22   3   1    8.36    7.52


TITL m39_auto in P2(1)/c
REM P2(1)/c (#14 in standard setting)
CELL 0.71073  17.887343   9.850746  19.189436  90.0000  95.3450  90.0000
ZERR   47.00   0.000630   0.000374   0.000634   0.0000   0.0030   0.0000
LATT  1
SYMM -x, y+1/2,-z+1/2
SFAC C H N O Fe
UNIT 47.00 47.00 47.00 47.00 47.00
REM  CrysAlisPro recorded range (K): Min=149.9; max=150.0; aver:150.0
TEMP -123
TREF
HKLF 4
END
_computing_structure_solution     'SHELXT 2014/4 (Sheldrick, 2014)'
;
_shelx_hkl_checksum    7353

