 
data_f
 
_audit_creation_method            'SHELXL-2018/3'
_shelx_SHELXL_version_number      '2018/3'
_chemical_name_systematic         ?
_chemical_name_common             ?
_chemical_melting_point           ?
_chemical_formula_moiety          ?
_chemical_formula_sum
 'C5 H13 Cu N5 O8 S' 
_chemical_formula_weight          366.80

loop_
 _atom_type_symbol
 _atom_type_description
 _atom_type_scat_dispersion_real
 _atom_type_scat_dispersion_imag
 _atom_type_scat_source
 'C'  'C'   0.0033   0.0016
 'International Tables Vol C Tables 4.2.6.8 and 6.1.1.4'
 'H'  'H'   0.0000   0.0000
 'International Tables Vol C Tables 4.2.6.8 and 6.1.1.4'
 'N'  'N'   0.0061   0.0033
 'International Tables Vol C Tables 4.2.6.8 and 6.1.1.4'
 'O'  'O'   0.0106   0.0060
 'International Tables Vol C Tables 4.2.6.8 and 6.1.1.4'
 'S'  'S'   0.1246   0.1234
 'International Tables Vol C Tables 4.2.6.8 and 6.1.1.4'
 'Cu'  'Cu'   0.3201   1.2651
 'International Tables Vol C Tables 4.2.6.8 and 6.1.1.4'
 
_space_group_crystal_system       monoclinic
_space_group_IT_number            14
_space_group_name_H-M_alt         'P 21/n'
_space_group_name_Hall            '-P 2yn'
 
_shelx_space_group_comment
;
The symmetry employed for this shelxl refinement is uniquely defined
by the following loop, which should always be used as a source of
symmetry information in preference to the above space-group names.
They are only intended as comments.
;
 
loop_
 _space_group_symop_operation_xyz
 'x, y, z'
 '-x+1/2, y+1/2, -z+1/2'
 '-x, -y, -z'
 'x-1/2, -y-1/2, z-1/2'
 
_cell_length_a                    7.8927(6)
_cell_length_b                    14.992(3)
_cell_length_c                    10.8628(8)
_cell_angle_alpha                 90
_cell_angle_beta                  109.403(9)
_cell_angle_gamma                 90
_cell_volume                      1212.4(3)
_cell_formula_units_Z             4
_cell_measurement_temperature     150(2)
_cell_measurement_reflns_used     ?
_cell_measurement_theta_min       ?
_cell_measurement_theta_max       ?
 
_exptl_crystal_description        ?
_exptl_crystal_colour             ?
_exptl_crystal_density_meas       ?
_exptl_crystal_density_method     ?
_exptl_crystal_density_diffrn     2.010          
_exptl_crystal_F_000              748
_exptl_transmission_factor_min    ?
_exptl_transmission_factor_max    ?
_exptl_crystal_size_max           0.160
_exptl_crystal_size_mid           0.100
_exptl_crystal_size_min           0.030
_exptl_absorpt_coefficient_mu     2.024
_shelx_estimated_absorpt_T_min    0.738
_shelx_estimated_absorpt_T_max    0.942
_exptl_absorpt_correction_type    ?
_exptl_absorpt_correction_T_min   ?
_exptl_absorpt_correction_T_max   ?
_exptl_absorpt_process_details    ?
_exptl_absorpt_special_details    ?
_diffrn_ambient_temperature       150(2)
_diffrn_radiation_wavelength      0.71073
_diffrn_radiation_type            MoK\a
_diffrn_source                    ?
_diffrn_measurement_device_type   ?
_diffrn_measurement_method        ?
_diffrn_detector_area_resol_mean  ?
_diffrn_reflns_number             17716
_diffrn_reflns_av_unetI/netI      0.0288
_diffrn_reflns_av_R_equivalents   0.0349
_diffrn_reflns_limit_h_min        -9
_diffrn_reflns_limit_h_max        9
_diffrn_reflns_limit_k_min        -19
_diffrn_reflns_limit_k_max        18
_diffrn_reflns_limit_l_min        -13
_diffrn_reflns_limit_l_max        13
_diffrn_reflns_theta_min          2.408
_diffrn_reflns_theta_max          27.165
_diffrn_reflns_theta_full         25.242
_diffrn_measured_fraction_theta_max   0.956
_diffrn_measured_fraction_theta_full  1.000
_diffrn_reflns_Laue_measured_fraction_max    0.956
_diffrn_reflns_Laue_measured_fraction_full   1.000
_diffrn_reflns_point_group_measured_fraction_max   0.956
_diffrn_reflns_point_group_measured_fraction_full  1.000
_reflns_number_total              2565
_reflns_number_gt                 2124
_reflns_threshold_expression      'I > 2\s(I)'
_reflns_Friedel_coverage          0.000
_reflns_Friedel_fraction_max      .
_reflns_Friedel_fraction_full     .
 
_reflns_special_details
;
 Reflections were merged by SHELXL according to the crystal
 class for the calculation of statistics and refinement.
 
 _reflns_Friedel_fraction is defined as the number of unique
 Friedel pairs measured divided by the number that would be
 possible theoretically, ignoring centric projections and
 systematic absences.
;
 
_computing_data_collection        ?
_computing_cell_refinement        ?
_computing_data_reduction         ?
_computing_structure_solution     ?
_computing_structure_refinement 'SHELXL-2018/3 (Sheldrick, 2018)'
_computing_molecular_graphics     ?
_computing_publication_material   ?
_refine_special_details           ?
_refine_ls_structure_factor_coef  Fsqd
_refine_ls_matrix_type            full
_refine_ls_weighting_scheme       calc
_refine_ls_weighting_details
'w=1/[\s^2^(Fo^2^)+(0.0363P)^2^+2.1433P] where P=(Fo^2^+2Fc^2^)/3'
_atom_sites_solution_primary      ?
_atom_sites_solution_secondary    ?
_atom_sites_solution_hydrogens    mixed
_refine_ls_hydrogen_treatment     mixed
_refine_ls_extinction_method      none
_refine_ls_extinction_coef        .
_refine_ls_number_reflns          2565
_refine_ls_number_parameters      223
_refine_ls_number_restraints      2
_refine_ls_R_factor_all           0.0443
_refine_ls_R_factor_gt            0.0328
_refine_ls_wR_factor_ref          0.0824
_refine_ls_wR_factor_gt           0.0778
_refine_ls_goodness_of_fit_ref    1.042
_refine_ls_restrained_S_all       1.041
_refine_ls_shift/su_max           0.000
_refine_ls_shift/su_mean          0.000
 
loop_
 _atom_site_label
 _atom_site_type_symbol
 _atom_site_fract_x
 _atom_site_fract_y
 _atom_site_fract_z
 _atom_site_U_iso_or_equiv
 _atom_site_adp_type
 _atom_site_occupancy
 _atom_site_site_symmetry_order  
 _atom_site_calc_flag
 _atom_site_refinement_flags_posn
 _atom_site_refinement_flags_adp
 _atom_site_refinement_flags_occupancy
 _atom_site_disorder_assembly
 _atom_site_disorder_group
Cu1 Cu 0.78518(4) 0.22418(2) 0.80209(3) 0.01466(12) Uani 1 1 d . . . . .
S1 S 0.46256(9) 0.28420(5) 0.89684(7) 0.01452(16) Uani 1 1 d . . . . .
O1 O 0.9869(3) 0.22001(17) 0.7351(3) 0.0226(5) Uani 1 1 d . . . . .
H1A H 0.991(5) 0.205(3) 0.672(4) 0.029(11) Uiso 1 1 d . . . . .
H1B H 1.079(6) 0.229(3) 0.781(4) 0.042(13) Uiso 1 1 d . . . . .
O2 O 0.8964(4) 0.09264(16) 0.9198(2) 0.0204(5) Uani 1 1 d . . . . .
H2A H 0.839(5) 0.075(2) 0.947(3) 0.018(11) Uiso 1 1 d . . . . .
H2B H 0.990(6) 0.095(3) 0.969(4) 0.038(13) Uiso 1 1 d . . . . .
O3 O 0.5916(3) 0.21733(13) 0.8784(2) 0.0202(5) Uani 1 1 d . . . . .
O4 O 0.3103(3) 0.23420(14) 0.9113(2) 0.0192(4) Uani 1 1 d . . . . .
O5 O 0.4078(3) 0.34533(14) 0.78605(19) 0.0221(5) Uani 1 1 d . . . . .
O6 O 0.5500(3) 0.33471(14) 1.01896(19) 0.0200(4) Uani 1 1 d . . . . .
N1 N 1.2554(3) 0.51508(17) 0.9621(2) 0.0187(5) Uani 1 1 d . . . . .
H1 H 1.320(5) 0.563(2) 0.966(3) 0.028(10) Uiso 1 1 d . . . . .
N3 N 1.0183(3) 0.42916(17) 0.8217(2) 0.0189(5) Uani 1 1 d . . . . .
N7 N 1.1268(3) 0.33376(16) 1.1398(2) 0.0151(5) Uani 1 1 d . . . . .
N9 N 0.9274(3) 0.30938(16) 0.9371(2) 0.0157(5) Uani 1 1 d . . . . .
N10 N 1.3916(3) 0.4935(2) 1.1860(3) 0.0202(6) Uani 1 1 d . . . . .
H10A H 1.455(5) 0.540(3) 1.191(4) 0.034(10) Uiso 1 1 d . . . . .
H10B H 1.388(4) 0.469(2) 1.246(3) 0.019(9) Uiso 1 1 d . . . . .
C2 C 1.1330(4) 0.4946(2) 0.8442(3) 0.0212(6) Uani 1 1 d . . . . .
H2 H 1.131011 0.531058 0.772147 0.025 Uiso 1 1 calc R U . . .
C4 C 1.0328(4) 0.38029(19) 0.9304(3) 0.0160(6) Uani 1 1 d . . . . .
C5 C 1.1551(4) 0.39573(19) 1.0551(3) 0.0154(6) Uani 1 1 d . . . . .
C6 C 1.2736(4) 0.46808(19) 1.0747(3) 0.0174(6) Uani 1 1 d . . . . .
C8 C 0.9889(4) 0.28545(19) 1.0642(3) 0.0151(6) Uani 1 1 d . . . . .
H8 H 0.937944 0.237696 1.097503 0.018 Uiso 1 1 calc R U . . .
O100 O 0.7281(3) 0.3762(2) 0.5941(3) 0.0471(8) Uani 1 1 d . . . . .
H10C H 0.812(7) 0.407(3) 0.647(5) 0.065(15) Uiso 1 1 d . . . . .
H10D H 0.771(6) 0.347(3) 0.552(4) 0.054(14) Uiso 1 1 d . . . . .
O200 O 0.8520(5) 0.5640(4) 0.4476(4) 0.0895(14) Uani 1 1 d D . . . .
H20A H 0.781(8) 0.522(3) 0.423(7) 0.107 Uiso 1 1 d D U . . .
H20B H 0.904(8) 0.533(4) 0.512(4) 0.107 Uiso 1 1 d D U . . .
 
loop_
 _atom_site_aniso_label
 _atom_site_aniso_U_11
 _atom_site_aniso_U_22
 _atom_site_aniso_U_33
 _atom_site_aniso_U_23
 _atom_site_aniso_U_13
 _atom_site_aniso_U_12
Cu1 0.01081(18) 0.0186(2) 0.01442(19) -0.00276(14) 0.00395(13) -0.00013(14)
S1 0.0115(3) 0.0182(4) 0.0150(3) -0.0004(3) 0.0058(3) -0.0007(3)
O1 0.0133(11) 0.0394(14) 0.0164(12) -0.0086(11) 0.0065(10) -0.0026(10)
O2 0.0179(12) 0.0244(12) 0.0198(12) 0.0024(10) 0.0076(11) 0.0000(10)
O3 0.0159(10) 0.0213(11) 0.0274(12) -0.0013(9) 0.0124(9) 0.0014(8)
O4 0.0114(10) 0.0243(11) 0.0224(11) 0.0009(9) 0.0065(8) -0.0045(8)
O5 0.0246(11) 0.0220(11) 0.0181(11) 0.0035(9) 0.0049(9) -0.0019(9)
O6 0.0218(11) 0.0241(11) 0.0159(10) -0.0034(9) 0.0088(9) -0.0073(9)
N1 0.0182(12) 0.0172(13) 0.0240(13) 0.0001(11) 0.0115(11) -0.0027(10)
N3 0.0157(12) 0.0207(13) 0.0209(13) -0.0007(10) 0.0068(10) 0.0000(10)
N7 0.0131(11) 0.0165(12) 0.0153(12) -0.0005(10) 0.0042(9) 0.0013(9)
N9 0.0117(11) 0.0203(12) 0.0153(12) -0.0020(10) 0.0046(9) 0.0013(9)
N10 0.0208(13) 0.0209(14) 0.0179(14) -0.0008(12) 0.0053(11) -0.0045(11)
C2 0.0203(15) 0.0241(16) 0.0225(15) 0.0025(13) 0.0114(13) 0.0027(13)
C4 0.0127(13) 0.0184(14) 0.0183(14) -0.0007(12) 0.0071(11) 0.0032(11)
C5 0.0130(13) 0.0165(14) 0.0187(14) 0.0012(12) 0.0078(11) 0.0028(11)
C6 0.0151(13) 0.0186(15) 0.0204(15) -0.0010(12) 0.0085(12) 0.0036(12)
C8 0.0117(13) 0.0181(14) 0.0140(14) -0.0011(11) 0.0021(11) 0.0019(11)
O100 0.0213(13) 0.060(2) 0.0498(18) -0.0340(16) -0.0017(13) 0.0101(13)
O200 0.060(2) 0.156(5) 0.057(2) -0.022(3) 0.025(2) 0.037(2)
 
_geom_special_details
;
 All esds (except the esd in the dihedral angle between two l.s. planes)
 are estimated using the full covariance matrix.  The cell esds are taken
 into account individually in the estimation of esds in distances, angles
 and torsion angles; correlations between esds in cell parameters are only
 used when they are defined by crystal symmetry.  An approximate (isotropic)
 treatment of cell esds is used for estimating esds involving l.s. planes.
;
 
loop_
 _geom_bond_atom_site_label_1
 _geom_bond_atom_site_label_2
 _geom_bond_distance
 _geom_bond_site_symmetry_2
 _geom_bond_publ_flag
Cu1 O1 1.959(2) . ?
Cu1 O3 1.9683(19) . ?
Cu1 N9 1.987(2) . ?
Cu1 N7 1.991(2) 4_565 ?
Cu1 O2 2.355(2) . ?
S1 O5 1.459(2) . ?
S1 O4 1.469(2) . ?
S1 O6 1.484(2) . ?
S1 O3 1.489(2) . ?
O1 H1A 0.72(4) . ?
O1 H1B 0.75(5) . ?
O2 H2A 0.67(4) . ?
O2 H2B 0.75(4) . ?
N1 C2 1.359(4) . ?
N1 C6 1.377(4) . ?
N1 H1 0.88(4) . ?
N3 C2 1.302(4) . ?
N3 C4 1.362(4) . ?
N7 C8 1.338(4) . ?
N7 C5 1.377(4) . ?
N9 C8 1.351(3) . ?
N9 C4 1.367(4) . ?
N10 C6 1.314(4) . ?
N10 H10A 0.85(4) . ?
N10 H10B 0.76(3) . ?
C2 H2 0.9500 . ?
C4 C5 1.397(4) . ?
C5 C6 1.401(4) . ?
C8 H8 0.9500 . ?
O100 H10C 0.85(5) . ?
O100 H10D 0.79(5) . ?
O200 H20A 0.824(10) . ?
O200 H20B 0.827(10) . ?
 
loop_
 _geom_angle_atom_site_label_1
 _geom_angle_atom_site_label_2
 _geom_angle_atom_site_label_3
 _geom_angle
 _geom_angle_site_symmetry_1
 _geom_angle_site_symmetry_3
 _geom_angle_publ_flag
O1 Cu1 O3 174.36(9) . . ?
O1 Cu1 N9 88.00(10) . . ?
O3 Cu1 N9 92.85(9) . . ?
O1 Cu1 N7 90.33(10) . 4_565 ?
O3 Cu1 N7 90.21(9) . 4_565 ?
N9 Cu1 N7 165.67(10) . 4_565 ?
O1 Cu1 O2 88.42(10) . . ?
O3 Cu1 O2 85.94(9) . . ?
N9 Cu1 O2 96.91(9) . . ?
N7 Cu1 O2 97.27(9) 4_565 . ?
O5 S1 O4 112.35(12) . . ?
O5 S1 O6 109.83(12) . . ?
O4 S1 O6 108.59(12) . . ?
O5 S1 O3 109.91(12) . . ?
O4 S1 O3 106.94(12) . . ?
O6 S1 O3 109.14(12) . . ?
Cu1 O1 H1A 130(3) . . ?
Cu1 O1 H1B 118(3) . . ?
H1A O1 H1B 111(5) . . ?
Cu1 O2 H2A 113(3) . . ?
Cu1 O2 H2B 116(3) . . ?
H2A O2 H2B 111(4) . . ?
S1 O3 Cu1 133.05(13) . . ?
C2 N1 C6 123.6(3) . . ?
C2 N1 H1 117(2) . . ?
C6 N1 H1 120(2) . . ?
C2 N3 C4 112.9(3) . . ?
C8 N7 C5 103.6(2) . . ?
C8 N7 Cu1 116.79(19) . 4_666 ?
C5 N7 Cu1 133.86(19) . 4_666 ?
C8 N9 C4 104.0(2) . . ?
C8 N9 Cu1 120.4(2) . . ?
C4 N9 Cu1 131.71(19) . . ?
C6 N10 H10A 121(3) . . ?
C6 N10 H10B 116(3) . . ?
H10A N10 H10B 123(4) . . ?
N3 C2 N1 125.4(3) . . ?
N3 C2 H2 117.3 . . ?
N1 C2 H2 117.3 . . ?
N3 C4 N9 126.0(3) . . ?
N3 C4 C5 125.7(3) . . ?
N9 C4 C5 108.3(2) . . ?
N7 C5 C4 108.8(2) . . ?
N7 C5 C6 132.0(3) . . ?
C4 C5 C6 119.1(3) . . ?
N10 C6 N1 120.1(3) . . ?
N10 C6 C5 126.7(3) . . ?
N1 C6 C5 113.2(3) . . ?
N7 C8 N9 115.2(3) . . ?
N7 C8 H8 122.4 . . ?
N9 C8 H8 122.4 . . ?
H10C O100 H10D 108(5) . . ?
H20A O200 H20B 86(7) . . ?
 
_refine_diff_density_max    0.634
_refine_diff_density_min   -0.522
_refine_diff_density_rms    0.090

_shelx_res_file
;
TITL m8sol_2_auto in P21/n #14
    f.res
    created by SHELXL-2018/3 at 14:42:53 on 20-Feb-2024
CELL 0.71073 7.8927 14.99216 10.86276 90 109.4025 90
ZERR 4 0.00062 0.00282 0.00082 0 0.0091 0
LATT 1
SYMM 0.5-X,0.5+Y,0.5-Z
SFAC C H N O S Cu
UNIT 20 52 20 32 4 4
Size 0.16 0.10 0.03

ACTA
BOND $H
BOND
HTAB
L.S. 20
PLAN  20
TEMP -123
fmap 2
WGHT    0.036300    2.143300
FVAR       0.37678
CU1   6    0.785180    0.224182    0.802087    11.00000    0.01081    0.01857 =
         0.01442   -0.00276    0.00395   -0.00013
S1    5    0.462556    0.284197    0.896837    11.00000    0.01146    0.01817 =
         0.01497   -0.00043    0.00579   -0.00075
O1    4    0.986922    0.220012    0.735111    11.00000    0.01329    0.03944 =
         0.01636   -0.00856    0.00646   -0.00260
H1A   2    0.990515    0.205406    0.672489    11.00000    0.02858
H1B   2    1.079311    0.228563    0.781476    11.00000    0.04194
O2    4    0.896396    0.092636    0.919758    11.00000    0.01791    0.02442 =
         0.01982    0.00239    0.00763   -0.00003
H2A   2    0.839294    0.074835    0.946825    11.00000    0.01814
H2B   2    0.989772    0.095119    0.968592    11.00000    0.03809
O3    4    0.591607    0.217332    0.878434    11.00000    0.01593    0.02130 =
         0.02739   -0.00128    0.01244    0.00141
O4    4    0.310278    0.234198    0.911334    11.00000    0.01136    0.02434 =
         0.02241    0.00091    0.00647   -0.00449
O5    4    0.407801    0.345331    0.786051    11.00000    0.02461    0.02198 =
         0.01809    0.00345    0.00492   -0.00192
O6    4    0.550003    0.334708    1.018964    11.00000    0.02177    0.02406 =
         0.01591   -0.00340    0.00876   -0.00727
N1    3    1.255401    0.515076    0.962110    11.00000    0.01818    0.01721 =
         0.02405    0.00015    0.01147   -0.00274
H1    2    1.320161    0.563058    0.965622    11.00000    0.02837
N3    3    1.018340    0.429158    0.821661    11.00000    0.01570    0.02069 =
         0.02091   -0.00073    0.00677    0.00002
N7    3    1.126819    0.333764    1.139751    11.00000    0.01311    0.01652 =
         0.01529   -0.00048    0.00424    0.00129
N9    3    0.927384    0.309375    0.937090    11.00000    0.01174    0.02031 =
         0.01531   -0.00199    0.00463    0.00128
N10   3    1.391564    0.493483    1.186023    11.00000    0.02085    0.02088 =
         0.01790   -0.00084    0.00526   -0.00453
H10A  2    1.454787    0.539811    1.190638    11.00000    0.03351
H10B  2    1.387600    0.468987    1.246156    11.00000    0.01877
C2    1    1.133031    0.494601    0.844152    11.00000    0.02027    0.02409 =
         0.02253    0.00248    0.01137    0.00274
AFIX  43
H2    2    1.131011    0.531058    0.772147    11.00000   -1.20000
AFIX   0
C4    1    1.032799    0.380286    0.930411    11.00000    0.01270    0.01843 =
         0.01832   -0.00066    0.00709    0.00319
C5    1    1.155126    0.395731    1.055061    11.00000    0.01296    0.01655 =
         0.01871    0.00124    0.00781    0.00280
C6    1    1.273587    0.468083    1.074654    11.00000    0.01513    0.01859 =
         0.02043   -0.00096    0.00847    0.00355
C8    1    0.988947    0.285448    1.064173    11.00000    0.01166    0.01807 =
         0.01399   -0.00108    0.00210    0.00187
AFIX  43
H8    2    0.937944    0.237696    1.097503    11.00000   -1.20000
AFIX   0
mole 2
O100  4    0.728131    0.376222    0.594067    11.00000    0.02133    0.06010 =
         0.04977   -0.03397   -0.00169    0.01011
H10C  2    0.812142    0.406711    0.647477    11.00000    0.06492
H10D  2    0.770515    0.346553    0.552139    11.00000    0.05374
dfix 0.83 0.01 O200 h20a O200 H20b
O200  4    0.851963    0.564018    0.447559    11.00000    0.05962    0.15585 =
         0.05716   -0.02223    0.02484    0.03687
H20A  2    0.781109    0.522094    0.423484    11.00000   -1.20000
H20B  2    0.904138    0.533105    0.512110    11.00000   -1.20000
HKLF 4




REM  m8sol_2_auto in P21/n #14
REM wR2 = 0.0824, GooF = S = 1.042, Restrained GooF = 1.041 for all data
REM R1 = 0.0328 for 2124 Fo > 4sig(Fo) and 0.0443 for all 2565 data
REM 223 parameters refined using 2 restraints

END

WGHT      0.0340      2.3419

REM Instructions for potential hydrogen bonds
EQIV $3 x+1/2, -y+1/2, z-1/2
HTAB O1 S1_$3
HTAB O1 O6_$3
EQIV $4 x+1, y, z
HTAB O1 S1_$4
HTAB O1 O4_$4
EQIV $5 -x+3/2, y-1/2, -z+3/2
HTAB O2 O200_$5
EQIV $1 x+1/2, -y+1/2, z+1/2
HTAB O2 O100_$1
EQIV $6 -x+2, -y+1, -z+2
HTAB N1 S1_$6
HTAB N1 O6_$6
HTAB N10 S1_$6
HTAB N10 O5_$6
HTAB N10 O2_$1
HTAB C8 O5_$1
HTAB O100 N3
HTAB O100 O4_$3
EQIV $7 -x+2, -y+1, -z+1
HTAB O200 O200_$7

REM Highest difference peak  0.634,  deepest hole -0.522,  1-sigma level  0.090
Q1    1   0.8776  0.5842  0.4312  11.00000  0.05    0.63
Q2    1   0.7848  0.4074  0.5555  11.00000  0.05    0.51
Q3    1   0.9727  0.3413  0.9244  11.00000  0.05    0.47
Q4    1   0.9512  0.4342  0.7455  11.00000  0.05    0.43
Q5    1   1.2224  0.4271  1.1002  11.00000  0.05    0.42
Q6    1   0.3718  0.2703  0.9259  11.00000  0.05    0.42
Q7    1   1.1660  0.3593  1.1000  11.00000  0.05    0.39
Q8    1   0.5141  0.3137  0.9609  11.00000  0.05    0.39
Q9    1   1.0883  0.3908  0.9796  11.00000  0.05    0.38
Q10   1   1.1354  0.3314  1.1823  11.00000  0.05    0.37
Q11   1   0.8838  0.2220  0.7391  11.00000  0.05    0.37
Q12   1   0.9646  0.2946  0.9850  11.00000  0.05    0.34
Q13   1   0.4643  0.3224  0.8542  11.00000  0.05    0.34
Q14   1   0.5302  0.2525  0.8752  11.00000  0.05    0.33
Q15   1   1.0782  0.3061  1.0848  11.00000  0.05    0.33
Q16   1   1.0777  0.4501  0.8356  11.00000  0.05    0.32
Q17   1   0.4242  0.3070  0.8370  11.00000  0.05    0.32
Q18   1   1.0110  0.3982  0.8754  11.00000  0.05    0.32
Q19   1   0.8391  0.2780  0.7819  11.00000  0.05    0.31
Q20   1   0.6659  0.2593  0.8953  11.00000  0.05    0.30
;
_shelx_res_checksum   80994

_shelx_hkl_file
;
   0   0   1-0.08866 0.28270   4
   0   0  -1 0.27908 0.47967   4
   0   0  -1 0.38472 0.62499   7
   0   0   1 0.28382 0.31304   7
   0   0  -1 0.09511 0.57659   2
   0   0   1 0.09363 0.34139   2
   0   0   1 0.13580 0.27518  15
   0   0  -1 0.20994 0.35550  15
   0   0   2 54.3045 2.42229  16
   0   0   2 61.4380 2.58380  14
   0   0  -2 57.0896 3.25698  15
   0   0   2 62.5455 3.30685  15
   0   0   2 55.8037 3.74907   4
   0   0  -2 56.0772 3.95241   2
   0   0   2 57.7344 3.72019   2
   0   0   2 62.0883 3.80701   7
   0   0  -2 59.0353 4.11428   7
   0   0  -3 0.21646 2.14006  15
   0   0   3 6.70404 2.50862  15
   0   0   3 1.77308 3.07929   4
   0   0   3-0.27956 2.85093   7
   0   0  -3 7.64081 4.04261   7
   0   0   3 1.28507 0.95253  14
   0   0   3-0.11216 0.70841  16
   0   0  -3-0.57669 4.00728   2
   0   0   3-0.27637 2.66602   2
   0   0   4 137.531 5.65146  16
   0   0  -4 144.128 7.25475  15
   0   0   4 134.527 5.67292  14
   0   0   4 153.359 7.15154  15
   0   0   4 147.641 7.90895   4
   0   0   4 138.333 7.89490   2
   0   0  -4 140.159 8.49736   2
   0   0   4 139.259 8.06200   7
   0   0  -4 150.020 8.83989   7
   0   0  -5 2.23771 2.79841  15
   0   0   5-0.31542 2.66078  15
   0   0   5-0.45702 3.56918   7
   0   0   5-1.20706 3.48605   4
   0   0   5 0.18725 1.19411  14
   0   0   5 0.76125 0.95212  16
   0   0   5 5.42836 3.32279   2
   0   0  -5-0.48117 4.88850   2
   0   0  -6 359.005 17.1540   2
   0   0   6 354.509 12.4561  16
   0   0   6 359.763 14.4102  15
   0   0   6 347.073 12.2780  14
   0   0  -6 354.258 15.2324  15
   0   0   6 340.297 15.3802   4
   0   0  -6 345.061 13.4890  11
   0   0   6 358.263 16.1163   7
   0   0   6 363.865 16.1869   2
   0   0   7-3.11503 5.95896   7
   0   0  -7 4.29339 4.50213  15
   0   0   7-2.53821 4.11485  15
   0   0   7-0.26789 1.27570  16
   0   0   7 4.28192 5.41714   4
   0   0   7 1.49464 1.72044  14
   0   0  -7 1.21661 1.45668  12
   0   0  -7-1.49716 2.34036  11
   0   0   7 3.12654 5.06780   2
   0   0  -7-4.00347 7.60194   2
   0   0  -8 855.167 32.9629   2
   0   0   8 819.089 26.0509  16
   0   0   8 815.075 25.6468  14
   0   0   8 820.657 28.3676  15
   0   0  -8 810.486 30.2001  15
   0   0   8 835.690 30.1902   4
   0   0  -8 845.905 27.7600  11
   0   0   8 811.990 31.0259   7
   0   0   8 778.694 30.8326   2
   0   0   9-7.90932 6.52355   2
   0   0   9 6.19889 5.69159   7
   0   0  -9 2.82716 5.72816  15
   0   0  10 436.428 21.6657   7
   0   0  10 421.217 21.8602   2
   0   0 -10 441.898 21.1572  15
   0   0  11-0.91167 6.19513   7
   0   0  11-13.1127 7.81577   2
   0   0  12 31.9952 8.75347   7
   0   0  12 41.0470 9.37592   2
   0  -1   1 796.844 21.0266   8
   0  -1  -1 766.775 21.4828   7
   0   1   1 756.689 21.3610   7
   0   1  -1 797.344 21.0394   8
   0  -1   1 804.249 21.7415   7
   0   1  -1 782.120 21.7331   7
   0   1  -1 768.931 21.0154  15
   0  -1   1 769.705 20.9815  15
   0  -1  -1 750.887 21.3558  15
   0   1   1 756.253 21.3166  15
   0  -1   1 763.639 21.5019   4
   0   1   1 725.194 21.3666   4
   0   1  -1 750.078 21.5700   4
   0  -1  -1 725.349 21.4173   4
   0   1   1 711.806 20.6972  12
   0  -1   1 788.097 21.3250  11
   0   1  -1 759.726 21.3198  11
   0  -1   1 776.116 21.5415   2
   0  -1  -1 771.117 21.5521   2
   0   1   1 767.252 21.4931   2
   0   1  -1 770.022 21.6069   2
   0  -1   2 2847.66 76.8828  16
   0   1  -2 2850.47 76.8727  16
   0   1   2 2867.00 76.3458  14
   0   1   2 2896.65 77.9153  15
   0   1  -2 2881.04 77.6565  15
   0  -1  -2 2837.37 78.0439  15
   0  -1   2 2872.21 77.5315  15
   0  -1   2 2853.88 78.3510   4
   0   1   2 2808.53 78.2547   4
   0  -1  -2 2974.19 76.6107  12
   0   1  -2 2851.05 77.4877  11
   0  -1   2 2944.45 77.4921  11
   0   1   2 2869.34 76.5335  12
   0  -1  -2 2797.46 78.5055   2
   0   1   2 2792.06 78.3540   2
   0  -1   2 2837.83 78.4813   2
   0   1  -2 2839.03 78.6313   2
   0   1  -2 2875.75 78.8862   7
   0  -1   2 2849.71 78.6943   7
   0   1   2 2855.26 78.3296   7
   0  -1  -2 2757.75 78.4021   7
   0   1  -3 173.844 5.88377  16
   0  -1   3 151.379 5.76099  16
   0  -1   3 173.873 6.96882  15
   0   1   3 157.477 5.41380  14
   0  -1   3 169.117 6.32964  14
   0  -1  -3 165.515 7.24783  15
   0   1  -3 168.575 7.10390  15
   0   1   3 162.690 7.22429  15
   0  -1   3 168.502 7.88331   4
   0   1   3 153.924 7.67459   4
   0   1  -3 166.245 6.57211  11
   0  -1  -3 156.861 5.42849  12
   0   1   3 149.872 7.61106   2
   0   1  -3 162.666 8.48020   2
   0  -1   3 179.225 7.99354   2
   0  -1  -3 160.049 8.37357   2
   0  -1   3 152.079 8.10535   7
   0   1   3 160.765 7.84377   7
   0   1  -3 160.756 8.57409   7
   0  -1  -3 153.987 8.24954   7
   0  -1   4 644.549 19.5660  16
   0   1  -4 679.840 19.5212  16
   0  -1   4 660.029 20.0426  14
   0  -1  -4 684.358 21.7731  15
   0   1  -4 638.513 21.2530  15
   0   1   4 635.754 19.0382  14
   0  -1   4 645.155 20.8804  15
   0   1   4 678.431 21.5107  15
   0   1   4 698.290 22.3221   4
   0  -1   4 681.811 22.2141   4
   0  -1  -4 639.633 19.0238  12
   0   1  -4 672.468 20.6406  11
   0   1  -4 650.080 22.8372   2
   0   1   4 632.366 22.1785   2
   0  -1   4 624.719 22.1982   2
   0  -1  -4 653.458 22.7943   2
   0   1   4 666.069 22.4137   7
   0   1  -4 675.290 23.2566   7
   0  -1   4 618.284 22.5452   7
   0   1   5 221.245 8.39541  16
   0  -1   5 221.659 8.39221  16
   0   1  -5 241.546 10.6251  15
   0  -1  -5 245.851 10.9663  15
   0  -1   5 233.338 9.98843  15
   0  -1   5 219.847 8.77592  14
   0   1   5 244.011 10.3496  15
   0   1   5 209.965 7.83932  14
   0  -1   5 229.501 11.0451   4
   0   1   5 240.258 11.2316   4
   0  -1  -5 209.145 7.68686  12
   0   1  -5 222.686 9.42208  11
   0   1   5 217.756 11.1818   2
   0   1  -5 227.397 12.3680   2
   0  -1   5 231.895 11.3538   2
   0  -1  -5 220.007 12.0854   2
   0   1   5 192.651 10.8702   7
   0  -1   5 238.265 11.8194   7
   0   1  -6 186.545 12.0039   2
   0  -1  -6 172.323 11.5308   2
   0  -1   6 166.284 7.35218  16
   0   1   6 172.254 7.41652  16
   0  -1   6 170.454 9.06703  15
   0  -1   6 179.470 7.81215  14
   0   1   6 190.960 9.64742  15
   0  -1  -6 167.186 9.80708  15
   0   1  -6 165.673 9.58183  15
   0   1   6 167.060 6.84969  14
   0  -1   6 170.775 10.2972   4
   0   1   6 190.796 10.6508   4
   0   1  -6 182.594 8.69810  11
   0  -1  -6 175.681 6.82702  12
   0  -1   6 162.783 10.6883   7
   0   1   6 173.247 10.7345   7
   0  -1   6 165.112 10.4176   2
   0   1   6 180.167 10.5744   2
   0   1  -7 11.3870 7.96898   2
   0  -1   7 3.13458 4.63868   2
   0  -1  -7 7.33376 7.73216   2
   0   1   7 8.69924 4.97610   2
   0   1   7 1.08425 1.22422  16
   0   1   7-0.43414 4.13530  15
   0  -1   7 4.52473 4.06729  15
   0  -1  -7 6.63160 4.96003  15
   0  -1   7 3.23257 1.70258  16
   0   1  -7 8.86907 4.75023  15
   0  -1   7-0.53645 5.30409   4
   0   1   7 1.06391 5.42528   4
   0   1   7 3.57443 1.50064  14
   0  -1  -7 3.91764 1.55085  12
   0  -1   7 1.14991 2.03488  14
   0   1  -7 2.71861 2.47748  11
   0   1   7-4.25992 6.01691   7
   0  -1   7 1.26980 5.52985   7
   0  -1  -8 844.756 33.2425   2
   0   1  -8 876.208 33.7309   2
   0   1   8 863.308 27.0269  16
   0  -1   8 839.031 26.8777  16
   0   1   8 862.745 29.6263  15
   0  -1  -8 828.627 31.0228  15
   0  -1   8 793.300 26.7058  14
   0   1  -8 847.654 30.9089  15
   0  -1   8 834.117 28.9215  15
   0  -1   8 824.403 30.7498   4
   0   1   8 928.393 31.4813   4
   0   1  -8 886.056 28.8809  11
   0  -1  -8 870.463 28.4390  11
   0   1   8 901.322 32.5332   2
   0  -1   8 833.233 32.0417   2
   0  -1   8 811.273 31.9263   7
   0   1   8 913.775 32.2401   7
   0  -1  -9 27.5187 7.19859  15
   0   1  -9 34.3919 7.20998  15
   0   1   9 28.1149 6.76085   7
   0  -1   9 39.3788 7.57018   7
   0  -1   9 15.8646 7.15803   2
   0   1   9 25.9624 7.53014   2
   0  -1 -10 30.8270 7.18346  15
   0  -1  10 40.3686 7.86151   7
   0   1  10 39.8375 8.04683   7
   0   1  10 28.4032 7.91447   2
   0  -1  10 18.2131 6.90728   2
   0   1  11 6.26838 6.62510   7
   0  -1  11 9.25208 7.22558   7
   0  -1  11-9.38190 7.91402   2
   0   1  11-1.86496 7.51216   2
   0   1  12 287.175 18.6573   2
   0  -1  12 279.941 18.5666   2
   0   1  12 265.200 17.3494   7
   0  -1  12 269.466 17.7932   7
   0  -2   0 4180.98 111.004   5
   0   2   0 4188.76 111.033   5
   0  -2   0 4185.16 112.089  18
   0  -2   0 4078.51 111.517   9
   0   2   1 7.21155 0.99724   2
   0  -2  -1 6.77140 1.33534   2
   0   2  -1 8.69586 1.35690   2
   0  -2   1 8.39584 1.17497   2
   0   2   1 4.90021 0.57361  17
   0  -2  -1 5.46608 0.61261  17
   0  -2  -1 6.42940 1.01042  15
   0   2   1 6.73699 1.06878  15
   0   2   1 6.70057 1.04972   4
   0   2   1 5.72686 0.79546   6
   0   2   1 6.19541 0.92509   7
   0   2  -1 7.25410 1.36861   7
   0  -2   1 6.28765 1.14371   4
   0  -2   1 7.71962 1.29632   7
   0  -2  -1 4.77975 0.77938   6
   0   2   1 4.31098 0.78642  10
   0  -2   1 7.82138 1.18136  11
   0  -2  -1 5.84867 0.87513  10
   0   2  -1 7.50092 1.17654  11
   0   2  -1 8.59158 0.91755   8
   0   2  -2 837.034 25.3428   7
   0   2   2 815.445 24.4484   7
   0  -2   2 821.629 25.1245   7
   0  -2   2 828.511 23.7421   8
   0   2   2 828.112 24.4130  15
   0   2  -2 826.321 23.8529  15
   0  -2   2 819.435 23.6680  15
   0  -2  -2 828.111 24.5505  15
   0  -2   2 862.244 24.7667   4
   0   2   2 865.642 24.6990   4
   0   2   2 853.214 23.1796  12
   0  -2   2 833.671 24.2797  11
   0   2  -2 813.780 24.3892  11
   0  -2  -2 843.349 23.8691  10
   0   2   2 816.529 24.6651   2
   0  -2  -2 826.017 24.9634   2
   0  -2   2 827.617 24.7917   2
   0   2  -2 854.885 25.1485   2
   0  -2   3 10.6000 1.50800   8
   0   2   3 10.1291 2.47730  15
   0  -2   3 11.0053 2.22992  15
   0   2  -3 11.7347 2.26601  15
   0   2   3 7.68389 0.72682  14
   0   2  -3 10.9336 1.29418  16
   0  -2  -3 10.5406 2.60570  15
   0  -2   3 13.4818 3.17629   4
   0   2   3 6.67992 2.69259   4
   0   2   3 10.9159 2.88702   7
   0   2  -3 20.2083 4.32472   7
   0  -2   3 15.2218 3.11181   7
   0  -2  -3 8.80725 1.15328  12
   0  -2   3 15.8055 1.96365  14
   0   2   3 8.87405 1.09250  12
   0   2  -3 16.6327 2.11350  11
   0  -2   3 9.86591 1.60956  11
   0  -2  -3 16.7080 4.03644   2
   0   2  -3 22.6203 4.33944   2
   0   2   3 12.9028 2.85490   2
   0  -2   3 14.6604 2.86488   2
   0  -2   4 73.5391 5.58065   2
   0  -2  -4 61.5580 6.03639   2
   0   2   4 64.7198 5.28975   2
   0   2  -4 67.1839 6.48068   2
   0   2  -4 74.7060 3.66677  16
   0  -2  -4 57.1806 4.73651  15
   0   2   4 65.6585 4.83377  15
   0  -2   4 69.9975 4.19781  14
   0  -2   4 75.6214 4.58501  15
   0   2  -4 66.5008 4.64736  15
   0   2   4 56.0338 2.65608  14
   0   2   4 61.6486 5.32379   4
   0  -2   4 68.5002 5.55900   4
   0  -2  -4 67.0932 3.22873  12
   0   2  -4 73.7119 4.41852  11
   0   2  -4 80.9371 6.95592   7
   0  -2   4 71.1437 5.88727   7
   0   2   4 54.7941 5.14438   7
   0   2  -5 5.34979 5.19644   2
   0  -2  -5 2.40195 5.25443   2
   0  -2   5 3.63278 3.21238   2
   0   2   5 1.33372 3.44967   2
   0   2  -5 1.27389 0.96560  16
   0  -2  -5-2.00686 2.96951  15
   0   2  -5 2.76815 3.04442  15
   0  -2   5 4.06577 2.74193  15
   0   2   5 1.68816 2.76874  15
   0   2   5-4.29118 3.63963   7
   0   2   5 1.18716 3.49926   4
   0  -2   5 2.42424 3.40826   4
   0   2   5-0.89917 1.04718  14
   0  -2  -5-0.29767 0.87308  12
   0  -2   5 2.84667 1.66601  14
   0   2  -5 0.90485 1.80895  11
   0  -2   5 0.47785 3.91853   7
   0  -2  -6 181.100 11.8625   2
   0   2  -6 195.199 12.3900   2
   0   2  -6 179.126 7.39858  16
   0  -2   6 169.058 8.11816  14
   0   2   6 188.440 9.64112  15
   0   2  -6 180.754 9.78667  15
   0  -2  -6 169.790 10.1920  15
   0  -2   6 179.472 9.09023  15
   0   2   6 178.739 6.62985  14
   0  -2   6 196.577 10.7227   4
   0   2   6 185.130 10.5900   4
   0   2  -6 177.344 8.87354  11
   0  -2  -6 171.084 6.95387  12
   0  -2   6 162.355 10.5331   2
   0   2   6 203.198 11.0459   2
   0   2   6 168.976 10.6453   7
   0  -2   6 167.216 10.9542   7
   0   2   7 63.1347 4.33930  16
   0   2  -7 73.9720 7.39094  15
   0   2   7 66.2145 6.73547  15
   0  -2   7 60.7331 4.79320  14
   0  -2  -7 69.9482 7.62045  15
   0  -2   7 62.5120 6.23565  15
   0  -2   7 45.5663 6.91585   4
   0   2   7 62.1868 7.41575   4
   0   2  -7 53.6210 5.17738  11
   0  -2  -7 59.2786 3.73038  12
   0  -2   7 46.4376 7.70455   7
   0   2   7 48.5648 7.27354   7
   0  -2  -7 48.0301 9.60271   2
   0  -2   7 50.1556 6.98907   2
   0   2  -7 54.5090 9.97314   2
   0   2   7 70.7874 7.89203   2
   0  -2   8 9.96809 6.00707   2
   0   2   8 2.10082 5.90812   2
   0  -2  -8 14.3611 9.89163   2
   0   2  -8 15.2285 9.73452   2
   0   2   8 1.57235 1.74008  16
   0   2   8 3.44714 4.77147  15
   0  -2  -8 14.3836 6.11940  15
   0  -2   8 8.93953 4.79339  15
   0   2  -8 12.3447 5.81273  15
   0   2   8-8.77821 6.82701   4
   0  -2   8-6.54084 6.85656   4
   0  -2   8 4.95487 2.69444  14
   0   2  -8 6.00214 3.56092  11
   0  -2   8 10.8641 6.24334   7
   0   2   8 10.0343 6.00446   7
   0  -2   9 11.7753 2.93563  14
   0  -2  -9 18.5389 6.88877  15
   0  -2   9 11.8971 6.32454   2
   0   2   9 20.2935 7.15033   2
   0  -2   9 18.3755 6.71385   7
   0   2   9 24.4891 6.89376   7
   0   2  10 590.426 26.3554   2
   0  -2  10 590.599 26.4275   2
   0   2  10 571.620 25.3786   7
   0  -2  10 582.684 26.2408   7
   0  -2 -10 583.621 26.0106  15
   0  -2 -11 9.15727 7.46746  15
   0  -2  11 6.56730 7.56002   2
   0   2  11-6.47888 7.18380   2
   0   2  11 10.5228 6.85038   7
   0  -2  11 13.1073 7.07548   7
   0   2  12 95.3823 11.7862   2
   0  -2  12 94.2312 11.8871   2
   0  -2  12 78.5883 10.6633   7
   0   2  12 110.419 11.5839   7
   0   3   0 0.79024 0.56852  15
   0  -3   0 0.49633 0.66017  15
   0   3   0 0.80068 0.75045   5
   0  -3   0 1.13768 1.05633   9
   0  -3  -1 65.3308 3.42689   2
   0  -3   1 78.3722 3.26129   2
   0   3   1 63.6442 2.96448   2
   0   3  -1 70.7429 3.59976   2
   0   3   1 66.6500 2.79147  17
   0  -3   1 72.5555 4.77906  18
   0   3  -1 76.9659 4.96099  18
   0  -3  -1 66.3731 3.32959  15
   0   3   1 66.5003 3.30206  15
   0  -3   1 71.0128 3.18304   4
   0   3   1 67.9074 3.28795   6
   0   3   1 68.7745 3.04116   4
   0  -3   1 73.9950 3.43021   5
   0   3  -1 70.3723 2.82380  13
   0  -3   1 70.3716 4.04906  11
   0  -3  -1 63.4569 3.47166  10
   0   3  -1 78.0790 4.20468  11
   0   3   1 62.1736 3.35989  10
   0   3  -1 70.7701 3.88029   9
   0   3  -1 75.5916 4.01194   7
   0  -3   1 68.8414 3.56021   7
   0  -3  -2 2373.85 66.0272   2
   0   3  -2 2370.15 66.2009   2
   0  -3   2 2398.54 65.8475   2
   0   3   2 2393.38 65.7016   2
   0  -3  -2 2465.61 64.2852  17
   0  -3  -2 2375.50 65.9189  15
   0  -3   2 2350.75 64.5382  15
   0   3   2 2365.80 65.6423  15
   0  -3   2 2406.93 65.7168   4
   0  -3  -2 2347.68 64.9806   6
   0   3   2 2354.95 65.5449   4
   0  -3   2 2365.62 66.1863  11
   0  -3  -2 2364.61 65.4989  10
   0   3  -2 2390.91 66.4175  11
   0  -3   2 2413.20 66.3358   7
   0   3  -2 2415.06 65.4056   8
   0  -3   2 2430.59 65.3600   8
   0   3   2 2373.83 65.3297   7
   0   3  -2 2364.00 66.6055   7
   0   3   3 683.488 21.7336   7
   0  -3   3 686.383 20.8160   8
   0   3  -3 680.969 23.1380   7
   0  -3   3 688.305 22.7042   7
   0   3   3 712.697 21.7731  15
   0  -3   3 696.040 21.5277  14
   0  -3   3 685.737 20.7062  15
   0  -3  -3 684.117 21.9889  15
   0  -3   3 697.736 22.1305   4
   0   3   3 698.847 21.9395   4
   0  -3   3 675.154 21.4203  11
   0   3   3 688.321 19.9000  12
   0  -3  -3 691.958 21.0293  10
   0   3  -3 698.448 21.8309  11
   0   3  -3 670.482 22.6055   2
   0   3   3 710.418 22.1780   2
   0  -3   3 702.496 22.2818   2
   0  -3  -3 714.766 22.7268   2
   0  -3   4 2.23961 1.36118   8
   0   3  -4 4.11391 2.30861  15
   0  -3  -4 2.35622 2.38227  15
   0   3   4 2.03807 2.33249  15
   0  -3   4 3.51361 2.04715  15
   0   3  -4 2.32498 1.01997  16
   0  -3   4 3.62017 2.82246   4
   0   3  -4 11.9983 4.25398   7
   0  -3   4-0.39564 3.07079   7
   0   3   4 1.95587 2.81047   7
   0   3   4 0.31905 2.82220   4
   0  -3   4 5.87906 1.80968  14
   0   3   4 2.72518 0.94572  12
   0  -3   4 1.79296 1.37960  11
   0   3  -4 2.86102 1.87762  11
   0   3  -4 1.97016 4.00381   2
   0  -3  -4 5.01550 3.96456   2
   0  -3   4 3.99875 2.70957   2
   0   3   4 2.45867 2.48577   2
   0   3   5 179.604 9.63583   2
   0  -3   5 152.911 9.27304   2
   0  -3  -5 159.121 10.3907   2
   0   3  -5 164.311 10.4503   2
   0   3  -5 167.599 6.80919  16
   0   3  -5 160.728 8.37769  15
   0  -3   5 163.454 7.77205  15
   0  -3   5 162.585 7.74151  14
   0  -3  -5 150.760 8.91125  15
   0   3   5 166.345 8.56021  15
   0  -3   5 167.473 9.22030   4
   0   3   5 155.736 8.91978   4
   0  -3  -5 160.242 6.43970  12
   0   3   5 155.159 5.24305  14
   0   3  -5 159.328 8.06547  11
   0  -3   5 165.911 7.25706   8
   0  -3   5 162.470 9.84255   7
   0   3   5 156.067 9.09278   7
   0  -3   6 90.1497 7.73004   2
   0   3   6 86.9779 7.58025   2
   0   3  -6 105.721 9.90609   2
   0  -3  -6 104.246 9.46533   2
   0   3  -6 91.1909 4.84796  16
   0  -3   6 102.396 6.42916  15
   0  -3   6 92.0594 5.85947  14
   0   3   6 101.461 7.09177  15
   0  -3  -6 86.5351 7.34916  15
   0   3  -6 92.0080 7.07250  15
   0  -3   6 99.0133 7.95950   4
   0   3   6 91.2624 7.53457   4
   0  -3  -6 85.7965 4.53580  12
   0   3   6 76.6671 3.52869  14
   0   3  -6 96.4208 6.31401  11
   0  -3   6 66.1583 7.46026   7
   0   3   6 72.6025 7.14651   7
   0  -3   6 88.3485 5.27873   8
   0   3   7 16.4486 5.68241   2
   0   3  -7 16.2039 8.87977   2
   0  -3  -7 22.0209 8.69678   2
   0  -3   7 9.39714 5.08488   2
   0   3  -7 10.8177 2.02359  16
   0  -3  -7 2.33813 4.85679  15
   0   3   7 12.2543 4.79058  15
   0  -3   7 13.8339 4.19859  15
   0  -3   7 10.7016 5.66496   4
   0   3   7 14.0637 5.68544   4
   0  -3   7 10.4666 2.88577  14
   0  -3  -7 9.25885 1.98910  12
   0   3  -7 6.50246 3.03113  11
   0  -3   7 12.7543 2.91788   8
   0   3   7 12.6003 5.17238   7
   0  -3   7 9.79228 5.89357   7
   0   3   8 228.739 14.2650   2
   0  -3   8 231.976 14.3790   2
   0  -3  -8 260.642 17.1112   2
   0   3  -8 247.072 17.0660   2
   0   3   8 228.732 10.1862  16
   0  -3   8 255.263 12.2111  15
   0  -3  -8 252.697 14.6516  15
   0   3   8 235.224 12.6822  15
   0  -3   8 234.556 11.0311  14
   0  -3   8 238.465 13.9812   4
   0   3   8 243.696 13.9874   4
   0   3  -8 245.973 12.2724  11
   0  -3   8 227.019 14.3718   7
   0   3   8 249.395 14.0145   7
   0  -3   9 27.5492 3.96130  14
   0  -3  -9 44.7451 8.05492  15
   0  -3   9 21.3623 7.27626   2
   0   3   9 31.6457 7.42106   2
   0   3   9 29.6195 7.09623   7
   0  -3   9 22.6270 7.00568   7
   0  -3 -10 8.46843 6.30994  15
   0  -3  10-3.46695 6.68170   2
   0   3  10-2.54070 6.26579   2
   0   3  10 3.16843 5.86041   7
   0  -3  10 1.75754 5.81521   7
   0  -3 -11 65.5114 10.1144  15
   0  -3  11 33.7665 8.51362   2
   0   3  11 36.7330 9.34618   2
   0  -3  11 53.9145 8.94304   7
   0   3  11 55.6732 8.79467   7
   0  -3  12 196.473 15.7919   2
   0   3  12 200.599 15.9802   2
   0  -3  12 182.720 15.0998   7
   0   3  12 208.194 15.0728   7
   0   4   0 2726.74 74.4396  15
   0  -4   0 2773.00 74.4858  15
   0   4   0 2874.07 75.8450   5
   0  -4   0 2843.40 77.9290  18
   0  -4   0 2832.07 76.7680   9
   0  -4   1 863.894 22.8894   2
   0   4   1 779.383 22.4496   2
   0  -4  -1 802.342 22.8712   2
   0   4  -1 815.878 23.0642   2
   0   4  -1 804.032 26.1220  18
   0  -4   1 824.290 25.8442  18
   0   4   1 786.958 22.8861  17
   0   4   1 822.451 23.1699  15
   0  -4  -1 786.540 23.3017  15
   0   4   1 778.768 23.7371   6
   0   4   1 791.029 22.4312   4
   0   4  -1 797.612 23.7898   5
   0  -4   1 850.002 22.8101   4
   0  -4   1 790.499 23.6857   5
   0   4  -1 803.790 22.6684  13
   0  -4   1 835.320 25.1496  11
   0  -4  -1 782.557 24.1961  10
   0   4  -1 762.448 24.5950  11
   0   4   1 846.412 24.0275  10
   0  -4   1 805.746 24.7738   9
   0   4  -1 814.175 23.6704   7
   0   4  -1 828.087 24.6332   9
   0  -4   1 856.005 23.4172   7
   0   4   2 1004.66 29.2492   2
   0  -4  -2 1039.87 29.8644   2
   0   4  -2 990.127 29.8602   2
   0  -4   2 1004.43 29.4072   2
   0  -4  -2 1039.46 28.3641  17
   0   4  -2 1046.21 32.2835  18
   0  -4  -2 1016.40 29.8463  15
   0  -4   2 987.767 28.1094  15
   0   4   2 1039.43 29.6148  15
   0   4   2 1084.92 29.1099   6
   0  -4   2 1005.68 29.4644   5
   0  -4  -2 992.010 29.3483   6
   0   4   2 1014.33 29.1978   4
   0  -4   2 1006.18 29.3393   4
   0  -4   2 1017.04 30.6823  11
   0   4   2 1040.08 29.4450  10
   0  -4  -2 1009.67 29.8891  10
   0   4  -2 999.201 30.8067  11
   0   4   2 995.725 28.7490   7
   0  -4   2 957.260 29.9114   7
   0   4  -2 1020.24 30.5407   7
   0   4  -2 1036.27 29.6366   8
   0  -4  -3 466.397 16.6664   2
   0  -4   3 468.784 16.2082   2
   0   4   3 469.707 16.0046   2
   0   4  -3 481.981 16.9812   2
   0  -4  -3 480.069 14.0908  17
   0  -4  -3 467.061 16.2039  15
   0  -4   3 454.830 14.5629  15
   0  -4   3 473.760 15.9376  14
   0   4   3 481.388 15.9820  15
   0   4   3 464.978 15.8568   4
   0  -4  -3 476.426 14.9154   6
   0  -4   3 472.520 16.0678   4
   0   4   3 450.900 14.3168  12
   0  -4   3 479.709 16.2269  11
   0   4  -3 466.667 16.5276  11
   0  -4  -3 493.477 15.7327  10
   0  -4   3 463.898 16.7066   7
   0   4  -3 491.028 15.4296   8
   0   4   3 439.746 15.5398   7
   0  -4   3 472.310 15.3593   8
   0   4  -3 460.153 17.2147   7
   0  -4   4 12.8225 3.71192   7
   0   4   4 12.2857 3.37334   7
   0  -4   4 8.37609 2.01803   8
   0  -4  -4 8.94661 1.91488  10
   0  -4   4 11.4954 2.43421  15
   0   4   4 14.4717 3.04340  15
   0  -4  -4 9.18577 3.04433  15
   0   4   4 11.5633 3.42079   4
   0  -4   4 10.4396 3.47526   4
   0  -4  -4 10.6561 1.71336   6
   0  -4   4 12.1474 2.39135  14
   0   4   4 13.3004 1.53540  12
   0  -4   4 13.9276 2.40676  11
   0   4  -4 11.0474 2.59875  11
   0  -4  -4 8.55822 4.33468   2
   0   4   4 13.7407 3.34156   2
   0   4  -4 19.5576 4.69229   2
   0  -4   4 13.6636 3.49642   2
   0  -4   5 125.072 8.17015   2
   0   4   5 136.862 8.40552   2
   0  -4  -5 122.346 9.35728   2
   0   4  -5 123.690 9.61629   2
   0   4  -5 125.379 5.82354  16
   0   4   5 129.197 7.61546  15
   0  -4   5 113.893 6.67582  14
   0  -4  -5 120.513 8.15859  15
   0  -4   5 134.798 6.84183  15
   0   4   5 127.905 7.94680   4
   0  -4   5 136.918 8.18950   4
   0   4   5 121.034 5.18842  12
   0  -4   5 128.482 6.86980  11
   0  -4  -5 129.535 6.70194  10
   0   4  -5 126.285 7.36227  11
   0   4   5 131.903 8.10113   7
   0  -4   5 127.534 6.43314   8
   0  -4   5 124.287 8.60412   7
   0  -4   6 16.0984 5.03267   2
   0  -4  -6 22.5445 7.21849   2
   0   4  -6 19.3964 7.52121   2
   0   4   6 15.9833 4.83639   2
   0   4  -6 14.9347 2.21347  16
   0  -4  -6 7.73038 4.50050  15
   0   4   6 10.6968 3.96576  15
   0  -4   6 14.9435 3.48206  15
   0   4   6 6.76110 4.45071   4
   0  -4   6 4.21466 4.60452   4
   0  -4   6 14.8540 3.00647  14
   0   4  -6 10.8856 3.22330  11
   0   4   6 4.25665 4.76167   7
   0  -4   6 15.2825 2.63272   8
   0  -4  -6 11.6819 2.50886  10
   0  -4   6 7.48168 4.86598   7
   0   4   7 306.802 15.6970   2
   0  -4   7 315.480 16.0480   2
   0   4  -7 322.223 11.9395  16
   0   4   7 316.543 14.3297  15
   0  -4  -7 314.609 15.8936  15
   0  -4   7 340.540 13.6051  15
   0  -4   7 273.111 12.9105  14
   0  -4   7 325.780 16.2898   7
   0  -4   7 331.703 12.8159   8
   0   4   7 330.083 15.2619   7
   0  -4   7 300.973 15.1832   4
   0   4   7 323.948 15.4527   4
   0   4  -7 293.785 13.8125  11
   0   4  -7 330.382 17.9511   2
   0  -4  -7 312.666 17.3779   2
   0   4  -8 108.188 12.7180   2
   0  -4  -8 124.696 13.3220   2
   0   4   8 107.927 9.30074   7
   0  -4   8 104.191 10.0253   7
   0  -4  -8 90.0127 9.54249  15
   0  -4   8 80.7698 6.50215  14
   0   4   8 91.1768 9.32124   4
   0  -4   8 80.9335 9.23503   4
   0   4  -8 97.2087 7.81858  11
   0  -4   8 93.3798 9.98363   2
   0   4   8 93.7575 9.54521   2
   0  -4   9-1.81814 2.66632  14
   0  -4   9-0.81514 5.72128   7
   0   4   9 4.20071 4.99141   7
   0  -4   9-5.51161 6.38134   2
   0   4   9-0.76120 5.75111   2
   0  -4  -9-0.77410 5.56109  15
   0  -4  10 261.708 16.6770   7
   0   4  10 236.102 14.9568   7
   0  -4 -10 265.128 12.8146  10
   0  -4  10 281.206 16.8545   2
   0   4  10 242.794 15.8461   2
   0  -4 -10 257.527 16.2998  15
   0  -4 -11 4.76779 7.26386  15
   0  -4  11 30.5293 8.18848   7
   0  -4 -11 15.3556 3.98835  10
   0   4  11 13.3171 6.51171   7
   0   4  11 12.7101 7.99717   2
   0  -4  11 13.0774 7.71415   2
   0  -4  12 43.5027 8.98337   7
   0   4  12 21.3794 8.67476   2
   0  -4  12 28.9433 8.55010   2
   0  -5   0 1.82457 2.99414  18
   0  -5   0 3.17369 1.06221  15
   0   5   0 4.67418 1.40274   5
   0  -5   0 4.47175 0.94315  13
   0   5   0 4.43119 1.63055  10
   0  -5   0 2.47433 1.50202   9
   0   5   1 1101.97 30.6920   2
   0  -5   1 1121.08 30.9579   2
   0   5  -1 1179.41 35.7447  18
   0   5   1 1114.86 31.7490  17
   0  -5   1 1165.12 35.2807  18
   0  -5  -1 1107.52 31.9817  15
   0  -5  -1 1133.43 31.4644  14
   0   5   1 1158.14 31.7610  15
   0  -5   1 1120.98 32.5976   5
   0  -5   1 1111.21 30.9040   4
   0   5   1 1132.86 32.8348   6
   0   5  -1 1153.40 32.8362   5
   0   5  -1 1159.68 31.3693  13
   0  -5   1 1137.49 34.2754  11
   0   5   1 1149.26 33.0019  10
   0  -5  -1 1065.47 33.2236  10
   0  -5   1 1151.10 33.9928   9
   0  -5   1 1114.99 31.5933   7
   0   5  -1 1148.43 33.6965   9
   0   5   2 1030.53 30.5083   2
   0  -5   2 1078.00 30.7931   2
   0   5  -2 1057.83 31.4114   2
   0  -5  -2 1086.66 31.2905   2
   0   5  -2 1097.22 34.6869  18
   0   5   2 1053.28 29.8361  17
   0  -5  -2 1063.76 29.1973  14
   0  -5  -2 1029.13 31.3573  15
   0  -5   2 1055.38 29.3754  15
   0   5   2 1109.91 31.2322  15
   0  -5   2 1166.29 32.0602  14
   0  -5   2 1076.12 31.3602   5
   0   5   2 1102.73 31.0216   6
   0   5   2 1036.33 30.4061   4
   0  -5   2 1071.75 30.6701   4
   0   5  -2 1108.13 30.2488  13
   0   5  -2 1083.02 32.9588  11
   0  -5  -2 1076.79 32.0562  10
   0  -5   2 1096.01 33.0318  11
   0   5   2 1030.85 31.2995  10
   0   5  -2 1135.94 32.6991   9
   0  -5   2 1040.54 31.4777   7
   0   5  -2 1084.32 31.5764   8
   0   5   2 1029.29 29.8074   7
   0  -5   3 249.676 10.2316   2
   0   5   3 260.742 10.1704   2
   0   5  -3 251.989 11.0461   2
   0  -5  -3 264.834 10.9922   2
   0  -5  -3 268.470 8.73343  17
   0  -5  -3 258.840 10.6363  15
   0  -5   3 260.513 8.76270  15
   0  -5   3 257.237 10.3854  14
   0   5   3 267.859 10.3993  15
   0  -5  -3 244.569 9.62431   6
   0   5   3 263.302 10.0616   4
   0  -5   3 242.349 10.1182   4
   0  -5   3 264.290 11.0016  11
   0  -5  -3 244.324 10.1892  10
   0   5  -3 246.347 11.0993  11
   0   5  -3 252.271 9.86558   8
   0   5   3 250.972 9.52046   7
   0  -5   3 260.401 10.9853   7
   0   5   4 342.888 13.8104   2
   0  -5   4 386.586 14.4038   2
   0   5  -4 340.704 14.8480   2
   0  -5  -4 375.639 15.1004   2
   0  -5  -4 347.804 11.3778  17
   0  -5   4 359.932 12.1262  15
   0  -5   4 337.199 13.3719  14
   0  -5  -4 386.014 14.5742  15
   0   5   4 365.776 13.8199  15
   0   5   4 338.942 13.5316   4
   0  -5  -4 352.512 12.3928   6
   0  -5   4 332.459 13.5902   4
   0   5   4 359.354 11.6986  12
   0   5  -4 365.333 14.4294  11
   0  -5  -4 358.207 13.3223  10
   0  -5   4 347.656 13.6532  11
   0   5   4 344.071 13.2509   7
   0  -5   4 342.304 14.6268   7
   0  -5   4 352.766 12.9033   8
   0  -5   5 668.214 24.2357   2
   0   5   5 685.798 24.1415   2
   0  -5  -5 685.724 25.1627   2
   0   5  -5 666.946 25.3144   2
   0   5  -5 691.384 21.6120  16
   0  -5   5 687.467 21.8320  15
   0  -5   5 722.305 23.4961  14
   0   5   5 697.955 23.4780  15
   0  -5  -5 692.641 24.4547  15
   0  -5  -5 688.679 21.5603   6
   0  -5   5 681.315 23.7883   4
   0   5   5 696.568 23.6860   4
   0  -5   5 716.134 23.3544  11
   0   5   5 694.270 20.6521  12
   0  -5  -5 686.363 22.8385  10
   0   5  -5 698.462 24.0878  11
   0  -5   5 653.775 24.6783   7
   0   5   5 655.200 23.2551   7
   0  -5   5 702.966 22.3817   8
   0   5   6 16.2319 5.20501   2
   0   5  -6 30.1134 7.88780   2
   0  -5  -6 24.9267 7.62506   2
   0  -5   6 28.1481 5.60642   2
   0   5  -6 27.9193 2.94883  16
   0  -5   6 28.0104 3.95666  15
   0   5   6 20.1555 4.53883  15
   0  -5  -6 17.5685 5.05951  15
   0   5   6 6.63955 4.93827   4
   0  -5   6 31.4519 5.62275   4
   0  -5  -6 18.5017 2.70264   6
   0   5   6 18.0420 2.13768  12
   0  -5   6 21.8167 3.58931  14
   0  -5   6 17.3600 3.23057  11
   0   5  -6 22.0629 4.37799  11
   0  -5   6 27.1591 3.54227   8
   0  -5  -6 22.7543 3.40289  10
   0   5   6 31.0343 5.11052   7
   0  -5   6 30.0482 5.69638   7
   0  -5   7 10.5290 5.45291   2
   0   5   7 12.9755 5.44861   2
   0  -5  -7 24.8934 9.04436   2
   0   5  -7 17.7219 9.00282   2
   0   5  -7 5.29131 1.99524  16
   0   5   7 3.75533 4.31828  15
   0  -5  -7 19.1321 5.88114  15
   0  -5   7-1.58565 5.51391   4
   0   5   7 1.51530 5.41891   4
   0  -5   7 4.74529 2.73138  14
   0   5  -7 8.55444 3.85860  11
   0   5   7 12.6652 4.69389   7
   0  -5   7 14.5712 5.91836   7
   0  -5  -7 12.6072 3.13745  10
   0  -5   7 5.24366 2.70210   8
   0  -5  -8 31.7816 4.37367  10
   0   5   8 48.8304 7.17380   7
   0  -5   8 33.4482 7.01894   7
   0  -5  -8 42.2632 7.58445  15
   0   5   8 40.0491 7.37371   4
   0  -5   8 29.3709 7.16494   4
   0  -5   8 35.6154 5.12920  14
   0   5  -8 27.4608 5.22468  11
   0   5   8 29.5304 6.75366   2
   0  -5   8 40.7345 7.63865   2
   0   5  -8 53.0842 11.4222   2
   0  -5  -8 50.3769 11.1711   2
   0  -5   9 0.49060 2.77805  14
   0  -5  -9-1.58323 5.85673  15
   0  -5   9 0.78160 5.82379   2
   0   5   9-6.73783 5.95817   2
   0  -5  -9-3.01024 2.87537  10
   0   5   9-2.02339 4.58124   7
   0  -5   9 8.20262 6.02517   7
   0  -5  10 0.51465 2.76823  14
   0   5  10 3.29573 6.98830   2
   0  -5  10-1.71715 6.95829   2
   0  -5  10 9.81601 7.18898   7
   0   5  10 2.97216 5.72803   7
   0  -5 -10-1.08698 3.11464  10
   0  -5 -10-0.88042 6.46697  15
   0  -5  11-2.78962 7.62533   2
   0   5  11-3.56959 7.93057   2
   0  -5 -11 2.91213 7.13017  15
   0  -5 -11-0.58039 3.03626  10
   0  -5  11 5.75535 7.14718   7
   0  -5  12 217.589 16.5498   7
   0   5  12 210.147 15.8350   2
   0  -5  12 177.652 15.5400   2
   0  -6   0 284.487 12.8980  18
   0  -6   0 296.666 10.1897  14
   0  -6   0 287.524 9.00841  15
   0   6   0 271.517 10.5221   5
   0  -6   0 276.685 9.09073  13
   0   6   0 282.369 10.9239  10
   0  -6   0 293.854 11.7363   9
   0  -6   1 1541.04 42.7063   2
   0   6  -1 1523.84 48.2982  18
   0  -6   1 1634.61 48.2869  18
   0   6   1 1538.14 44.0845  17
   0  -6  -1 1592.45 43.8265  14
   0   6   1 1555.98 43.8366  15
   0  -6   1 1642.41 45.2695  14
   0  -6  -1 1571.02 44.2149  15
   0   6   1 1568.31 45.3787   6
   0   6   1 1602.82 45.2231   5
   0   6  -1 1595.33 45.3474   5
   0  -6   1 1622.61 45.1253   5
   0  -6   1 1608.11 47.1820  11
   0   6   1 1593.35 45.4915  10
   0  -6   1 1575.83 43.5632   7
   0  -6   1 1536.28 46.6149   9
   0   6  -1 1671.14 46.5028   9
   0  -6   2 46.2607 3.18996   2
   0   6   2 54.8480 3.21820   2
   0   6  -2 57.6571 5.95364  18
   0   6   2 52.1110 2.90425  17
   0  -6   2 52.2376 2.28644  15
   0  -6  -2 51.3437 3.90228  15
   0   6   2 50.1355 3.56494  15
   0  -6   2 49.3178 3.86391  14
   0  -6  -2 55.8210 2.57138  14
   0  -6   2 50.3091 3.26704   4
   0   6   2 47.5258 3.01100   4
   0   6   2 51.6792 3.66096   6
   0  -6   2 45.1586 3.59962   5
   0   6  -2 47.1419 2.84649  13
   0  -6   2 46.0598 4.47515  11
   0   6  -2 44.6331 4.57202  11
   0  -6  -2 49.5728 4.02177  10
   0   6   2 56.0134 3.89224  10
   0  -6   2 52.3047 3.79770   7
   0   6   2 47.7622 2.42851   7
   0   6  -2 46.3514 3.71394   8
   0   6  -2 42.9928 4.19043   9
   0   6   3 336.513 12.3508   2
   0  -6   3 344.545 12.6649   2
   0   6  -3 345.141 13.6526   2
   0  -6  -3 334.567 13.2854   2
   0   6  -3 336.510 15.6530  18
   0  -6  -3 347.998 11.2770  17
   0   6   3 358.915 12.8424  15
   0  -6   3 340.323 10.8043  15
   0  -6  -3 354.339 13.3743  15
   0  -6   3 342.559 13.2487  14
   0   6   3 331.904 12.1668   4
   0  -6   3 348.979 12.6789   5
   0  -6   3 347.578 12.5526   4
   0  -6  -3 347.910 13.3394  10
   0  -6   3 337.633 13.9227  11
   0   6  -3 348.290 14.3042  11
   0   6   3 361.720 12.6257  10
   0  -6   3 325.479 13.1229   7
   0   6  -3 344.088 13.7802   9
   0   6  -3 330.154 12.7205   8
   0   6   3 342.023 11.5380   7
   0   6   4 57.1725 4.97780   2
   0  -6   4 55.5948 5.02671   2
   0  -6  -4 51.1672 6.16371   2
   0   6  -4 59.0895 6.46015   2
   0  -6  -4 50.4673 3.21286  17
   0  -6  -4 49.2303 5.07362  15
   0  -6   4 52.3744 3.54482  15
   0   6   4 49.3569 4.63839  15
   0  -6   4 49.3745 4.44168  14
   0  -6   4 53.1767 4.98012   4
   0   6   4 45.5090 4.61006   4
   0  -6  -4 50.5539 3.99048   6
   0   6   4 45.9866 3.30598  12
   0  -6  -4 43.2239 4.12779  10
   0  -6   4 49.5885 4.60478  11
   0   6  -4 53.0145 5.25015  11
   0   6  -4 46.5636 4.05301   8
   0   6   4 52.9022 4.26363   7
   0  -6   4 60.2128 5.40739   7
   0   6   5 42.2072 4.72294   7
   0  -6   5 44.0312 4.11099   8
   0  -6   5 35.8980 5.37822   7
   0  -6   5 35.5155 3.67794  15
   0   6   5 38.1579 4.74007  15
   0  -6  -5 45.7145 5.69530  15
   0  -6  -5 38.7432 3.66607   6
   0   6   5 47.1239 5.43243   4
   0  -6   5 39.5141 5.22473   4
   0  -6   5 32.3755 4.06051  14
   0   6   5 40.7095 3.01372  12
   0  -6   5 37.7860 4.27936  11
   0   6  -5 40.0798 4.92662  11
   0  -6  -5 47.7418 4.59955  10
   0  -6   5 45.3833 5.49226   2
   0  -6  -5 43.5100 7.33691   2
   0   6  -5 41.9764 7.23108   2
   0   6   5 40.1456 5.15613   2
   0  -6   6 196.828 11.6275   2
   0   6   6 185.099 11.0284   2
   0   6  -6 196.335 13.4856   2
   0  -6  -6 222.315 13.8497   2
   0   6  -6 206.847 8.90761  16
   0  -6  -6 206.238 11.9804  15
   0   6   6 216.328 11.0721  15
   0  -6   6 199.226 10.4329  14
   0  -6  -6 203.334 8.98731   6
   0  -6   6 199.379 11.2381   4
   0   6   6 194.919 10.7741   4
   0  -6   6 200.654 10.1610  11
   0   6   6 202.529 7.88569  12
   0  -6  -6 199.372 10.1451  10
   0   6  -6 187.657 10.9704  11
   0   6   6 202.575 10.6119   7
   0  -6   6 210.573 9.73096   8
   0  -6   6 196.832 11.9857   7
   0   6  -7 142.137 13.2101   2
   0  -6  -7 167.764 13.4365   2
   0   6   7 135.831 9.37552   7
   0  -6   7 148.651 11.0063   7
   0  -6   7 122.195 7.50129   8
   0  -6  -7 128.867 10.2563  15
   0   6   7 131.670 9.12126  15
   0  -6   7 127.135 8.35428  14
   0  -6   7 118.032 9.78514   4
   0   6   7 104.054 9.15729   4
   0  -6   7 135.148 8.30765  11
   0  -6  -7 118.394 7.90352  10
   0   6  -7 125.856 9.15808  11
   0   6   7 120.481 9.67785   2
   0  -6   7 124.124 10.2105   2
   0   6  -8 189.607 14.9228   2
   0  -6  -8 166.570 14.5792   2
   0  -6  -8 126.388 11.2714  15
   0  -6   8 145.705 9.16062  14
   0  -6   8 131.852 11.2041   7
   0   6   8 147.370 10.2372   7
   0   6   8 158.844 10.8681   4
   0  -6   8 143.838 10.8766   4
   0   6  -8 157.765 10.4284  11
   0  -6  -8 126.666 8.65687  10
   0   6   8 152.015 11.1502   2
   0  -6   8 149.255 11.3441   2
   0  -6   9 151.474 12.0950   7
   0  -6  -9 145.761 9.31330  10
   0   6   9 133.519 11.2000   2
   0  -6   9 128.415 11.6016   2
   0  -6   9 141.804 9.27071  14
   0  -6  -9 163.306 12.3833  15
   0  -6  10 149.644 12.9824   7
   0  -6 -10 144.058 9.68448  10
   0  -6  10 140.485 12.4568   2
   0   6  10 126.057 11.9644   2
   0  -6 -10 149.871 12.9762  15
   0  -6  10 131.197 9.04400  14
   0  -6 -11 33.5642 8.97215  15
   0  -6 -11 35.5038 5.46939  10
   0  -6  11 35.6121 8.45434   7
   0  -6  11 14.7667 7.19530   2
   0   6  11 10.5153 7.34329   2
   0  -6  12 6.12009 7.10212   7
   0  -6  12-1.96795 7.78241   2
   0   6  12-2.80500 7.48693   2
   0  -7   0 3.06782 3.80998  18
   0  -7   0 1.96493 1.39464  15
   0   7   0 3.62628 1.59918   5
   0  -7   0 0.39306 0.94230  13
   0  -7   0 2.37653 1.58757  14
   0   7   0 2.15157 1.90310  10
   0  -7   0 1.96451 1.80586   9
   0  -7   1 365.579 15.9143  18
   0   7   1 335.577 11.9756  17
   0   7  -1 353.151 15.9498  18
   0   7   1 345.192 11.5332  15
   0  -7  -1 341.795 11.6687  14
   0  -7   1 367.092 12.9862  14
   0  -7  -1 331.004 11.8413  15
   0  -7   1 361.562 10.2247  15
   0   7   1 338.426 13.1032   6
   0   7   1 374.749 13.0347   5
   0   7  -1 390.197 13.4013   5
   0  -7   1 381.247 13.0962   5
   0   7   1 329.857 13.0348  10
   0  -7   1 348.591 14.6720  11
   0   7  -1 380.892 14.3051   9
   0  -7  -1 344.668 14.3021   9
   0  -7   1 356.797 14.4094   9
   0  -7   1 352.737 11.1967   7
   0  -7   2 399.921 13.2740   2
   0   7   2 399.029 12.8354   2
   0   7   2 426.041 13.3783  17
   0   7  -2 453.557 18.9486  18
   0  -7   2 438.507 15.3244  14
   0  -7  -2 404.580 12.7776  14
   0   7   2 428.276 14.1058  15
   0  -7  -2 423.823 14.6871  15
   0  -7   2 425.783 13.2595   4
   0   7   2 430.047 14.7447   6
   0  -7   2 417.054 14.7748   5
   0   7  -2 432.306 13.3282  13
   0   7   2 406.708 14.7982  10
   0   7  -2 449.947 16.5674  11
   0  -7  -2 411.935 15.6844  10
   0  -7   2 432.863 16.8555  11
   0  -7   2 401.963 14.0601   7
   0   7  -2 421.205 15.1646   8
   0   7  -2 405.140 15.8721   9
   0   7   3 427.057 14.5619   2
   0  -7   3 440.558 15.0140   2
   0   7  -3 464.574 19.6158  18
   0  -7  -3 403.098 12.3704  14
   0  -7  -3 444.074 16.0959  15
   0   7   3 426.593 15.1493  15
   0  -7   3 453.900 16.1560  14
   0  -7   3 435.769 12.9088  15
   0   7   3 445.571 14.8801   6
   0  -7   3 452.584 15.6269   5
   0  -7   3 423.623 14.7236   4
   0   7   3 422.875 14.3833   4
   0   7  -3 426.769 14.0462  13
   0   7  -3 483.948 17.6576  11
   0   7   3 459.936 15.4568  10
   0  -7   3 446.501 17.2404  11
   0  -7  -3 462.334 16.6655  10
   0  -7   3 414.651 15.5184   7
   0   7   3 436.348 13.5979   7
   0   7  -3 455.271 16.9396   9
   0   7  -3 435.102 15.7680   8
   0   7  -4 6.91517 5.17521   2
   0  -7   4-1.00744 3.05736   2
   0  -7  -4 8.33096 5.16766   2
   0   7   4-1.22832 2.84802   2
   0  -7  -4 1.24492 1.54899  17
   0   7  -4-4.12234 4.74511  18
   0   7   4-1.62354 3.19740  15
   0  -7  -4 2.43960 3.35366  15
   0  -7   4 2.42872 1.92663  15
   0   7   4 0.56158 2.97959   4
   0  -7   4 2.46728 1.84977   5
   0  -7   4-2.43922 3.42110   4
   0  -7   4 3.10596 2.37863  14
   0  -7   4-0.88639 2.38396  11
   0   7  -4-2.93459 3.61857  11
   0  -7  -4 0.40755 2.03874  10
   0  -7   4 6.79616 3.70768   7
   0   7  -4-1.76414 2.78518   9
   0   7  -4 2.35194 1.78276   8
   0   7   4 0.46160 2.27276   7
   0   7  -5 1093.36 36.6770   2
   0  -7  -5 1072.43 36.3974   2
   0  -7   5 1038.57 35.8662   7
   0   7   5 1071.15 33.5574   7
   0  -7  -5 1106.91 36.0666  15
   0  -7   5 1022.73 34.8789  14
   0   7   5 1151.70 34.7924  15
   0  -7   5 1123.84 34.7758   4
   0  -7   5 1077.42 33.8548   5
   0  -7  -5 1074.39 33.6386   6
   0   7   5 1109.74 34.3817   4
   0   7   5 1164.99 32.3760  12
   0  -7   5 1133.40 35.4501  11
   0  -7  -5 1138.59 35.2677  10
   0   7  -5 1104.91 36.4767  11
   0  -7   5 1079.93 35.2126   2
   0   7   5 1068.37 34.6679   2
   0   7  -6 52.2586 9.07018   2
   0  -7  -6 50.9568 8.99299   2
   0  -7   6 54.4813 6.63509   2
   0   7   6 48.2696 6.30018   2
   0   7  -6 48.0052 4.22332  16
   0  -7   6 49.2128 5.31704  14
   0  -7  -6 46.0087 6.71689  15
   0   7   6 53.1813 6.08221  15
   0  -7  -6 42.3526 4.29396   6
   0  -7   6 40.4352 6.39776   4
   0   7   6 38.6570 5.77607   4
   0  -7  -6 46.0985 5.04881  10
   0   7  -6 43.1818 5.82526  11
   0  -7   6 47.2538 5.12931  11
   0  -7   6 36.9441 6.20252   7
   0   7  -7 105.623 12.1078   2
   0  -7  -7 131.251 12.9558   2
   0  -7   7 91.4010 9.06799   7
   0  -7  -7 87.4691 9.32953  15
   0   7   7 82.5855 7.88306  15
   0  -7   7 91.3711 7.40353  14
   0  -7   7 77.0987 8.27438   4
   0  -7   7 106.261 7.59106  11
   0   7  -7 88.8766 8.20275  11
   0  -7  -7 96.9869 7.43579  10
   0  -7   7 86.3686 8.91607   2
   0   7   7 102.499 9.07577   2
   0  -7   8 8.93375 5.85482   7
   0  -7   8 4.25013 3.39375  14
   0  -7  -8 11.0962 6.06962  15
   0  -7  -8 9.90906 3.37874  10
   0  -7   8 12.9833 5.50876   2
   0   7   8 1.91712 5.45326   2
   0  -7   9 13.1921 6.56562   7
   0  -7   9 7.82604 3.67277  14
   0  -7  -9 12.3910 6.45519  15
   0  -7  -9 4.14459 3.44056  10
   0   7   9 15.7763 6.43949   2
   0  -7   9 9.95591 5.90803   2
   0  -7  10 8.97902 7.23359   7
   0  -7  10 0.58309 3.26103  14
   0  -7 -10 3.65764 7.09532  15
   0  -7 -10-1.26240 3.66006  10
   0  -7  10-2.52606 7.10279   2
   0   7  10-7.88814 6.76277   2
   0  -7  11-5.78412 7.23333   7
   0  -7 -11 9.03019 7.78548  15
   0  -7  11 0.60385 3.15902  14
   0  -7 -11 2.66805 3.95665  10
   0  -7  11-3.64950 7.35019   2
   0  -7  12 38.9124 9.36134   2
   0  -8   0 196.170 11.5545  18
   0  -8   0 184.340 7.95268  14
   0  -8   0 188.017 6.78363  15
   0   8   0 174.960 8.61655   5
   0  -8   0 179.434 6.81248  13
   0  -8   0 180.963 9.96393  11
   0   8   0 193.269 9.11063  10
   0  -8   0 186.281 9.85579   9
   0   8   1 877.532 28.0458  17
   0  -8   1 952.212 32.8074  18
   0  -8  -1 936.060 27.8049  14
   0  -8  -1 993.230 28.0659  15
   0   8   1 948.850 27.4423  15
   0  -8   1 959.370 29.1806  14
   0  -8   1 938.838 25.8724  15
   0   8   1 920.219 29.4942   6
   0  -8   1 995.942 29.3145   5
   0   8   1 962.030 29.5666   5
   0   8  -1 956.601 29.7849   5
   0   8   1 955.075 29.7061  10
   0  -8   1 943.291 31.7059  11
   0  -8   1 962.948 31.3445   9
   0  -8   1 915.695 26.7183   7
   0  -8  -1 945.649 31.2797   9
   0   8   2 45.8939 2.68690   2
   0  -8   2 46.5922 3.00743   2
   0   8  -2 48.5013 6.40826  18
   0   8   2 48.1039 3.28641  17
   0  -8  -2 58.2348 4.47337  15
   0  -8   2 53.5436 4.34510  14
   0  -8  -2 45.0234 2.90580  14
   0   8   2 53.1498 3.78451  15
   0   8   2 54.7117 4.24766   5
   0  -8   2 53.2867 4.32144   5
   0   8   2 47.9979 4.20286   6
   0   8  -2 50.8613 3.26411  13
   0  -8   2 48.3062 5.33335  11
   0   8   2 60.3560 4.59383  10
   0   8  -2 43.5016 4.73135   9
   0  -8   2 46.6324 3.68211   7
   0   8  -2 58.7833 4.60486   8
   0   8   3 597.447 18.8517   2
   0  -8   3 581.412 19.2752   2
   0   8  -3 624.847 25.3300  18
   0   8   3 602.676 18.2779  17
   0  -8   3 608.969 21.1818  14
   0   8   3 625.889 19.9526  15
   0  -8  -3 601.394 20.8252  15
   0  -8   3 587.626 19.0703   4
   0   8   3 620.406 19.9039   6
   0  -8   3 626.147 20.5039   5
   0   8  -3 585.264 18.7141  13
   0  -8  -3 596.488 21.6606  10
   0  -8   3 634.730 22.8547  11
   0   8  -3 607.359 22.4029  11
   0   8   3 617.984 20.4024  10
   0  -8   3 583.073 20.1298   7
   0   8  -3 594.991 20.8767   8
   0   8  -3 611.270 21.8981   9
   0  -8   4-2.25829 3.41144   2
   0   8   4-1.44560 3.06796   2
   0   8  -4-0.76263 5.04656  18
   0  -8  -4 1.27198 3.57659  15
   0   8   4 4.28154 2.97004  15
   0  -8   4 2.01403 2.18125   5
   0  -8   4 0.88092 3.03924   4
   0  -8   4 1.68202 2.38098  14
   0   8  -4-0.91437 1.59170  13
   0  -8   4 0.49605 2.97502  11
   0  -8  -4 4.60563 2.60778  10
   0   8  -4 0.52522 3.74441  11
   0   8  -4-1.11387 1.79834   8
   0   8  -4 1.88575 2.70172   9
   0  -8   4 0.79249 3.34249   7
   0   8   5 27.4685 4.55153   2
   0  -8   5 23.8966 4.88941   2
   0   8  -5 21.8776 6.50088  18
   0   8   5 31.5271 4.74591  15
   0  -8  -5 39.3909 5.94787  15
   0  -8   5 25.3594 3.73428   5
   0  -8   5 30.1718 4.96011   4
   0  -8   5 33.1368 4.53350  14
   0   8   5 39.9980 3.50704  12
   0  -8  -5 39.9600 4.88824  10
   0   8  -5 20.4268 5.05970  11
   0  -8   5 30.2920 4.44605  11
   0   8  -5 28.2133 4.91262   9
   0  -8   5 41.7635 5.81980   7
   0  -8   6 3.44207 4.94458   7
   0  -8  -6 0.58805 5.25186  15
   0   8   6 2.18221 4.40049  15
   0  -8   6 2.65914 2.70851   5
   0  -8   6-2.97688 3.39860  14
   0  -8  -6 3.69582 3.26834  10
   0  -8   6 2.00832 3.10808  11
   0   8  -6 8.49472 4.22494  11
   0  -8   6 3.00014 4.94360   2
   0   8   6-3.22438 4.49914   2
   0  -8   7 139.212 10.8373   7
   0  -8   7 143.665 9.34450  14
   0  -8  -7 136.592 11.0461  15
   0  -8   7 140.070 8.24677   5
   0  -8   7 125.910 8.63291  11
   0   8  -7 126.986 10.0198  11
   0  -8  -7 130.326 9.19652  10
   0  -8   7 117.990 9.89717   2
   0  -8  -8 27.2918 6.78360  15
   0  -8   8 28.9786 6.65066   7
   0  -8   8 29.9016 4.90142  14
   0  -8  -8 34.9532 5.36119  10
   0  -8   8 29.4398 4.61657  11
   0  -8   8 27.5280 6.60549   2
   0  -8   9 228.539 15.1701   7
   0  -8   9 204.261 12.1448  14
   0  -8  -9 244.851 15.6605  15
   0  -8  -9 240.395 13.2410  10
   0  -8   9 224.946 14.6445   2
   0  -8 -10 32.6333 8.86357  15
   0  -8 -10 19.6962 5.02775  10
   0  -8  10 22.3994 7.62499   7
   0  -8  10 25.2452 4.90988  14
   0  -8 -11 16.3108 8.42306  15
   0  -8  11 14.6216 4.41909  14
   0  -8 -11 20.6991 5.26673  10
   0  -8  11 33.6583 8.51851   7
   0  -9   0-2.61805 4.80787  18
   0  -9   0-0.86154 1.86249  15
   0   9   0 1.46135 1.99212   5
   0  -9   0 2.45486 1.94525  14
   0  -9   0 2.26705 1.19912  13
   0   9   0 3.09055 2.48749  10
   0  -9   0 0.54076 2.66288  11
   0  -9   0 10.3387 3.10071   9
   0  -9   1 48.8409 2.42674  15
   0  -9  -1 46.3731 3.91388  15
   0  -9   1 56.0014 4.47249  14
   0  -9  -1 41.9437 3.36399  14
   0  -9  -1 64.8932 7.65193  18
   0   9   1 36.5948 3.52651  17
   0  -9   1 39.0419 6.47653  18
   0   9   1 49.2141 4.62258   6
   0   9  -1 53.0674 4.59097   5
   0   9   1 51.6438 4.42584   5
   0  -9   1 50.4910 5.60674  11
   0   9   1 50.5178 4.61844  10
   0  -9   1 50.9291 5.46112   9
   0  -9  -1 47.3316 5.23391   9
   0  -9   2 138.273 7.74417  14
   0  -9  -2 137.484 7.35111  15
   0  -9  -2 133.111 5.85526  14
   0   9   2 142.503 6.62687  15
   0   9   2 150.098 6.47917  17
   0  -9   2 133.823 10.2223  18
   0   9  -2 134.984 10.6385  18
   0   9   2 134.195 7.46534   5
   0  -9   2 136.077 7.44872   5
   0   9   2 147.376 7.68630   6
   0  -9   2 133.137 9.09741  11
   0   9   2 132.065 7.54416  10
   0   9  -2 155.287 8.89969   9
   0   9  -2 161.254 8.33202   8
   0  -9   2 128.938 6.29475   7
   0  -9   3 464.906 15.6464   2
   0   9   3 474.274 16.4256  15
   0  -9   3 458.251 17.7845  14
   0  -9  -3 479.774 17.6589  15
   0   9  -3 470.738 21.9333  18
   0   9   3 463.908 15.0601  17
   0   9   3 476.739 16.8056   6
   0  -9   3 501.232 17.4333   5
   0  -9  -3 455.322 18.5089  10
   0  -9   3 472.112 19.4534  11
   0   9  -3 485.437 19.2999  11
   0   9   3 488.497 17.3478  10
   0   9  -3 490.574 18.8731   9
   0   9  -3 481.007 17.9003   8
   0  -9   3 461.145 16.6823   7
   0  -9   4 81.2954 6.10616   2
   0   9  -4 109.341 10.6775  18
   0   9   4 93.4728 6.41755  15
   0  -9  -4 109.126 7.73588  15
   0  -9   4 82.5780 6.64808  14
   0  -9   4 94.0837 6.38363   5
   0  -9   4 103.293 7.83444  11
   0   9  -4 85.4694 7.78306  11
   0  -9  -4 102.379 7.55348  10
   0   9   4 100.257 6.36353  10
   0   9  -4 92.5961 7.39321   9
   0   9  -4 87.3377 6.46756   8
   0  -9   4 99.0547 7.02947   7
   0   9  -5 648.522 27.8974  18
   0  -9  -5 630.528 23.8947  15
   0   9   5 626.073 22.1765  15
   0  -9   5 616.470 23.1753  14
   0  -9   5 632.009 21.9661   5
   0   9   5 648.334 20.5488  12
   0  -9   5 646.576 23.8665  11
   0   9  -5 624.245 24.6226  11
   0  -9  -5 621.964 23.6878  10
   0  -9   5 599.351 23.0768   7
   0   9  -5 627.426 23.7759   9
   0   9  -5 640.341 22.6145   8
   0   9  -6 19.6110 7.39855  18
   0  -9  -6 27.9545 6.59555  15
   0   9   6 15.3583 4.62757  15
   0  -9   6 17.7151 3.77550   5
   0  -9   6 12.6921 3.93610  14
   0   9  -6 12.2530 4.92440  11
   0  -9  -6 9.24937 3.94997  10
   0  -9   6 21.5724 4.61909  11
   0  -9   6 23.9098 5.79959   7
   0   9  -6 16.1883 4.81515   9
   0   9  -7 56.6990 9.22898  18
   0  -9  -7 54.0105 7.99069  15
   0  -9   7 46.3486 5.70634  11
   0  -9  -7 49.3610 6.11039  10
   0  -9   7 41.9093 6.82236   7
   0  -9   7 46.9014 5.98506  14
   0  -9  -8-6.99761 5.79362  15
   0  -9   8-3.95870 3.46529  11
   0  -9  -8 1.31639 3.29308  10
   0  -9   8-0.73826 5.34398   7
   0  -9   8-2.38651 3.53974  14
   0  -9  -9 20.7166 7.45393  15
   0  -9  -9 29.9588 5.66527  10
   0  -9   9 16.3412 7.09403   7
   0  -9   9 10.6207 4.01026  14
   0  -9 -10 7.59478 7.55640  15
   0  -9 -10 0.73485 4.16277  10
   0  -9  10 8.90072 6.63315   7
   0  -9  10 7.10983 3.61704  14
   0  -9 -11 20.6865 9.06873  15
   0  -9  11 12.6632 4.77895  14
   0  -9 -11 22.2778 5.41593  10
   0  -9  11 33.3861 8.82118   7
   0 -10   0 277.349 15.8819  18
   0 -10   0 292.266 11.5985  14
   0  10   0 307.437 12.9199   5
   0 -10   0 288.635 10.0832  13
   0  10   0 291.996 12.8489  10
   0 -10   0 257.739 14.0054  11
   0 -10   0 304.312 14.4682   9
   0  10   1 792.375 25.0492  17
   0 -10   1 783.917 30.1870  18
   0 -10  -1 824.013 30.8819  18
   0  10   1 804.188 26.6676   6
   0  10   1 819.579 26.5078   5
   0  10  -1 815.610 26.7977   5
   0 -10   1 763.651 25.7230  14
   0 -10  -1 783.956 24.2816  15
   0 -10  -1 754.576 24.3827  14
   0 -10   1 788.614 29.1044  11
   0  10   1 825.346 26.7344  10
   0  10  -1 767.474 26.6239  10
   0 -10  -1 794.961 28.6207   9
   0 -10   1 801.217 28.6640   9
   0  10   2 43.5460 3.79023  17
   0 -10   2 51.6542 7.87394  18
   0  10   2 41.6822 4.42666   5
   0  10   2 51.8561 4.96164   6
   0 -10   2 37.8065 4.29785   5
   0 -10   2 49.1304 4.76249  14
   0 -10  -2 41.3064 4.67115  15
   0 -10   2 48.3243 6.27365  11
   0  10   2 45.4571 4.66108  10
   0  10  -2 58.1461 5.18324   8
   0 -10  -2 59.2233 6.29270   9
   0  10  -2 56.8071 5.87738   9
   0  10  -3 476.501 22.8671  18
   0  10   3 480.209 17.6747   5
   0 -10   3 478.996 17.5937   5
   0  10   3 473.778 17.1988   6
   0 -10   3 450.515 18.0278  14
   0 -10  -3 469.348 17.8322  15
   0  10   3 469.949 17.4914  10
   0 -10   3 471.425 20.0376  11
   0  10  -3 486.548 19.2310   9
   0  10  -3 466.355 18.1974   8
   0  10  -4 73.0209 10.1471  18
   0 -10   4 62.9079 6.17193  14
   0 -10  -4 75.2827 7.16440  15
   0 -10   4 68.6634 5.65958   5
   0 -10   4 65.5687 6.90758  11
   0  10  -4 64.4058 7.31934  11
   0 -10  -4 73.0643 6.94206  10
   0  10   4 75.2971 5.72137  10
   0  10  -4 70.7763 5.93365   8
   0  10  -4 65.5364 6.59324   9
   0 -10   4 63.6857 5.87204   7
   0  10  -5 25.8270 8.28826  18
   0 -10  -5 38.6081 6.73421  15
   0 -10   5 36.7571 4.66644   5
   0 -10   5 32.9157 5.15295  14
   0 -10   5 21.7856 4.87523  11
   0 -10  -5 38.3351 5.59508  10
   0  10  -5 25.7774 5.81360  11
   0  10  -5 34.7087 4.59472   8
   0 -10   5 37.3859 5.55390   7
   0  10  -5 28.8129 5.33184   9
   0  10  -6 29.9945 8.43315  18
   0 -10  -6 33.8656 7.00380  15
   0  10   6 37.8609 5.25301  15
   0 -10   6 29.2944 4.51227   5
   0 -10   6 32.5509 4.99057  14
   0 -10   6 39.0998 5.28510  11
   0 -10  -6 29.8246 5.30687  10
   0 -10   6 33.1245 5.96003   7
   0  10  -7 322.492 20.0402  18
   0 -10   7 318.659 15.1746  11
   0 -10  -7 318.949 16.9566  15
   0 -10   7 324.734 15.4346  14
   0 -10  -7 295.546 15.5513  10
   0 -10   7 305.393 15.8389   7
   0  10  -8 39.1779 8.96829  18
   0 -10   8 40.8605 5.78918  14
   0 -10  -8 33.3595 5.91166  10
   0 -10   8 47.0306 5.99901  11
   0 -10   8 32.1038 6.96602   7
   0 -10  -8 42.1568 8.23750  15
   0  10  -9 148.036 15.1049  18
   0 -10   9 195.957 11.9329  14
   0 -10  -9 203.561 14.9445  15
   0 -10  -9 186.233 12.5880  10
   0 -10   9 189.003 13.4645   7
   0 -10  10 7.45600 4.06697  14
   0 -10 -10-2.90640 7.80567  15
   0 -10 -10 4.71455 4.39612  10
   0 -10 -11 13.0829 5.22981  10
   0 -10  11 17.4004 4.86321  14
   0 -11   0 0.78752 6.30629  18
   0  11   0 5.41549 3.16802   5
   0 -11   0 1.29999 2.20825  14
   0  11   0-0.45699 2.97014  10
   0 -11   0 3.40055 3.65866  11
   0 -11   0 4.51665 3.47111   9
   0  11   1 106.487 6.46537  17
   0 -11  -1 121.815 11.5105  18
   0 -11   1 97.7927 10.4228  18
   0 -11  -1 102.446 5.94868  14
   0 -11   1 114.766 7.01857  14
   0  11   1 107.240 7.18139   5
   0  11   1 105.865 7.53935   6
   0  11  -1 113.010 7.91700  10
   0 -11   1 108.243 9.09518  11
   0  11   1 105.355 7.30422  10
   0 -11   1 125.433 9.30045   9
   0 -11  -1 109.323 8.89042   9
   0 -11   2 38.7539 7.91781  18
   0 -11  -2 46.6203 8.53164  18
   0  11   2 34.4941 4.53159   6
   0  11   2 38.0049 4.51794   5
   0 -11   2 42.4553 4.82335  14
   0  11   2 48.7604 5.07459  10
   0 -11   2 25.1210 5.29659  11
   0 -11  -2 36.7731 5.71969   9
   0  11  -2 38.2754 4.79961   8
   0  11  -3 355.733 19.7417  18
   0 -11   3 337.552 14.9794  14
   0 -11  -3 334.612 14.6142  15
   0  11   3 345.699 14.4826   5
   0 -11   3 369.770 14.7021   5
   0  11   3 346.025 14.1072   6
   0  11   3 341.079 14.3917  10
   0 -11   3 338.996 16.7718  11
   0  11  -3 338.728 15.0441   8
   0  11  -3 368.131 16.2931   9
   0  11  -4 13.6086 7.68813  18
   0 -11  -4 3.36712 4.99689  15
   0 -11   4 0.82406 2.77508   5
   0  11   4-0.84788 2.48697   5
   0 -11   4 3.57092 3.49439  14
   0 -11   4 0.65114 3.77587  11
   0  11  -4 2.89464 2.76503   8
   0  11  -4 1.12541 3.78970   9
   0  11  -5 582.831 27.4135  18
   0 -11   5 578.750 22.9783  11
   0 -11  -5 511.377 22.3409  10
   0  11  -5 587.683 22.8343   9
   0  11  -5 558.875 21.1469   8
   0 -11   5 526.056 21.6053  14
   0 -11  -5 589.823 22.6680  15
   0 -11   6 84.5612 7.72078  14
   0 -11  -6 94.2504 8.87640  15
   0 -11   6 87.6316 7.82495  11
   0 -11  -6 94.4857 8.51776  10
   0  11  -6 80.2306 10.9548  18
   0 -11  -7 11.6596 6.41695  15
   0 -11   7 11.7927 4.29461  11
   0 -11  -7 14.5051 4.72005  10
   0  11  -7 3.35348 7.33534  18
   0 -11   7 6.27263 4.04659  14
   0 -11  -8-2.44028 6.22927  15
   0 -11  -8 0.76825 3.96129  10
   0  11  -8-5.87344 7.49052  18
   0 -11   8-0.65966 4.24670  14
   0 -11  -9 16.1881 7.63041  15
   0 -11  -9 7.19076 4.41655  10
   0  11  -9 4.94502 7.65482  18
   0 -11   9 6.17247 3.84065  14
   0 -11  10 10.5977 4.46416  14
   0 -11 -10 2.50884 4.56107  10
   0 -11 -10 0.98362 7.22656  15
   0 -12   0 81.5058 10.7726  18
   0  12   0 81.1079 6.87592   5
   0  12   0 89.2930 7.47882   6
   0 -12   0 89.8322 6.03678  14
   0  12   0 86.9793 7.15320  10
   0 -12   0 82.6756 8.64881  11
   0 -12   0 76.0217 7.96419   9
   0 -12  -1 161.638 13.5942  18
   0 -12   1 146.327 13.0456  18
   0 -12   1 179.618 9.32312  14
   0  12   1 178.322 10.2475   6
   0  12   1 182.275 10.1851   5
   0  12  -1 160.293 9.92177  10
   0 -12   1 189.644 12.5587  11
   0  12   1 161.940 9.71034  10
   0 -12  -1 171.118 11.5260   9
   0 -12   1 184.098 12.0193   9
   0 -12   2 0.79964 6.40305  18
   0 -12  -2 4.30156 6.97238  18
   0  12   2-0.88731 3.30566   6
   0  12   2 0.46832 2.98626   5
   0 -12   2-1.79023 2.88120  14
   0 -12   2 3.69528 4.33500  11
   0  12  -2 2.09053 3.16834   8
   0 -12  -2-2.13984 3.93893   9
   0  12  -3 122.645 12.4160  18
   0 -12   3 132.337 8.67846  14
   0  12   3 136.599 8.43009   5
   0  12   3 124.297 7.91964   6
   0 -12   3 137.355 10.4730  11
   0  12  -3 145.349 10.0144   9
   0  12  -3 127.772 8.73738   8
   0 -12  -3 124.422 10.2182   9
   0  12  -4 33.7429 8.56894  18
   0 -12   4 34.9644 4.98751  14
   0  12   4 32.7076 4.44400   5
   0 -12   4 28.0460 5.60523  11
   0  12  -4 27.1187 4.35379   8
   0  12  -5-1.08293 7.10218  18
   0  12   5-0.46890 2.68814   5
   0 -12   5 5.80762 3.70400  14
   0 -12  -5 2.07633 3.72345  10
   0 -12   5 6.12979 4.12958  11
   0  12  -5 5.22548 3.13480   8
   0 -12   6 126.614 9.44973  14
   0 -12   6 120.905 9.62690  11
   0 -12  -6 132.430 10.4371  10
   0  12  -6 147.328 14.5408  18
   0 -12  -7 45.5516 8.15857  15
   0 -12  -7 37.1385 6.50770  10
   0  12  -7 38.9112 9.55990  18
   0 -12   7 42.0255 6.15696  14
   0 -12  -8 4.15379 6.52962  15
   0 -12  -8 0.81749 3.82552  10
   0  12  -8 1.22787 8.12531  18
   0 -12   8 2.75372 3.75303  14
   0 -12   9 62.1458 7.24894  14
   0 -12  -9 53.0641 7.97262  10
   0 -12  -9 54.0147 9.76415  15
   0 -12 -10 57.9745 10.6066  15
   0  13   0-3.21884 3.55066   5
   0 -13   0-2.46201 4.53248  11
   0 -13   0-1.54826 4.05039   9
   0  13   1 26.1834 4.39480   5
   0 -13   1 29.6522 4.38704  14
   0 -13   1 13.8491 5.43187  11
   0 -13  -1 22.7979 5.66264  11
   0 -13  -1 27.8093 6.14594   9
   0 -13   1 29.5569 6.07211   9
   0 -13   2 302.167 13.8137  14
   0  13   2 303.235 14.1821   5
   0 -13   2 324.846 17.0793  11
   0 -13  -2 309.002 16.6486   9
   0  13  -2 303.300 14.7551   8
   0 -13   3 11.9383 3.71454  14
   0  13   3 13.9718 3.88537   5
   0 -13   3 9.31903 4.91474  11
   0  13  -3 11.9026 3.66303   8
   0 -13  -3 13.4908 4.87248   9
   0  13  -4 16.0353 7.70195  18
   0 -13   4 20.3324 4.56020  14
   0  13   4 24.3580 4.09469   5
   0 -13   4 19.4463 5.32326  11
   0 -13  -4 29.6564 6.12270   9
   0  13  -4 21.3253 4.36556   8
   0  13  -5 7.89556 7.92450  18
   0 -13   5 17.6250 4.51026  14
   0  13   5 8.57234 3.07726   5
   0 -13   5 18.8592 5.02201  11
   0  13  -5 16.1565 4.01784   8
   0  13   6 16.5128 3.97294   5
   0 -13   6 17.5044 4.67537  14
   0 -13  -6 15.5175 5.05831  10
   0  13  -6 5.91958 7.91456  18
   0 -13   7 192.174 12.0947  14
   0  13   7 194.826 11.0506   5
   0  13  -7 184.965 16.7724  18
   0 -13  -7 172.684 12.8804  10
   0 -13  -8 4.31208 4.88351  10
   0 -13   8 1.43159 3.85067  14
   0 -13  -9 11.6209 5.43133  10
   0 -13   9 15.5778 4.96568  14
   0 -14   0 500.409 23.8979  11
   0 -14   0 532.915 23.7878   9
   0  14   0 505.090 20.8932   5
   0 -14   1 378.079 19.5601  11
   0 -14  -1 329.775 18.7946  11
   0 -14  -1 343.626 18.5234   9
   0  14   1 371.739 16.3466   5
   0 -14   2 205.845 11.3549  14
   0  14   2 249.903 12.5874   5
   0 -14   2 232.260 14.8000  11
   0 -14  -2 240.199 14.8633   9
   0  14  -2 210.455 12.3258   8
   0 -14   3 20.6452 4.32786  14
   0  14   3 14.0486 4.05890   5
   0 -14   3 33.1629 6.45379  11
   0 -14  -3 24.5901 6.06708   9
   0  14  -3 15.8535 4.44346   8
   0 -14   4 21.8024 4.73118  14
   0  14   4 35.3354 5.16363   5
   0 -14   4 34.9289 6.44693  11
   0 -14  -4 31.5649 6.62916   9
   0  14  -4 34.2870 5.22104   8
   0 -14   5 27.8396 5.07900  14
   0  14   5 35.0467 5.07531   5
   0  14  -5 33.8798 9.50790  18
   0  14  -5 35.6357 5.24488   8
   0 -14   6 5.38285 3.94921  14
   0  14   6 6.04710 3.60788   5
   0  14  -6 1.22143 8.57396  18
   0 -14   7 52.5097 6.87021  14
   0 -14  -8 6.29875 5.04543  10
   0 -14   8 22.9872 5.61411  14
   0 -15   0 0.95858 4.79538  11
   0 -15   0 3.61068 4.58574   9
   0 -15   1 24.3811 6.60206  11
   0 -15  -1 13.4618 5.91367  11
   0  15  -1 20.8279 4.77433   8
   0 -15  -1 17.1268 5.71594   9
   0  15   1 21.6819 4.67176   5
   0 -15   2 203.338 14.2886  11
   0  15  -2 202.297 12.1328   8
   0 -15  -2 189.952 13.9510   9
   0  15   2 196.065 11.6048   5
   0 -15   3 113.096 8.61671  14
   0 -15   3 115.795 11.1339  11
   0  15   3 121.578 8.80871   5
   0 -15  -3 126.849 11.2725   9
   0  15  -3 131.079 9.64573   8
   0  15   4 141.066 9.52411   5
   0 -15  -4 140.148 11.8960   9
   0  15  -4 123.610 9.50883   8
   0 -15   4 115.630 8.99320  14
   0 -15   5 51.8405 6.52194  14
   0  15   5 40.8756 5.84058   5
   0  15  -5 59.9821 10.8853  18
   0  15  -5 37.8266 5.75824   8
   0 -15  -5 53.9898 8.17737   9
   0  15   6 3.49992 3.34416   5
   0  15  -6 2.51426 3.51657   8
   0 -15   6 4.87173 3.89337  14
   0 -15   7 64.4889 7.63739  14
   0 -16   0 611.019 27.8372   9
   0 -16   0 627.809 28.7983  11
   0  16   1 127.748 9.51805   5
   0 -16  -1 127.176 11.7623   9
   0  16  -1 124.058 9.76266   8
   0 -16  -1 110.131 11.6174  11
   0 -16   1 100.832 11.1903  11
   0  16   2 25.6517 4.96203   5
   0 -16  -2 9.22677 6.63315  11
   0 -16   2 30.8475 7.06059  11
   0  16  -2 22.8706 5.17028   8
   0 -16  -2 44.3045 7.78754   9
   0  16   3 0.61620 3.61511   5
   0 -16  -3 4.83021 5.33523   9
   0  16  -3 1.38349 3.72147   8
   0 -16   3 5.27312 3.47624  14
   0  16   4 1.83182 3.49922   5
   0 -16  -4-0.98085 4.42255   9
   0  16  -4-0.68055 3.61075   8
   0 -16   4-0.63267 3.21380  14
   0  16   5 4.28272 3.63034   5
   0  16  -5 4.65328 3.98783   8
   0 -16  -5 4.04093 5.05418   9
   0 -16   5 1.35126 3.53567  14
   0  16   6 17.9312 4.56756   5
   0 -16  -6 13.6484 6.03608   9
   0  16  -6 23.7542 5.20870   8
   0 -16   6 17.2153 4.93709  14
   0 -17   0-2.16606 5.24565  11
   0 -17   0-1.02601 5.36763   9
   0 -17   1-1.05498 5.67463  11
   0 -17  -1-5.47370 6.19861  11
   0  17  -1 0.72484 3.68217   8
   0 -17  -1-1.02353 5.03938   9
   0 -17  -2 84.2838 10.8752  11
   0 -17  -2 101.333 10.7202   9
   0  17  -2 119.240 9.87859   8
   0  17   2 91.1123 8.25452   5
   0  17  -3 10.9545 4.47907   8
   0 -17  -3 3.07958 5.29711   9
   0  17   3 8.46490 4.19711   5
   0  17   4 82.1679 7.97715   5
   0 -17   4 77.3678 7.63359  14
   0  17  -4 68.0818 7.66513   8
   0 -17  -4 62.1761 9.32012   9
   0  17   5-2.59216 3.84427   5
   0 -17  -5-1.05882 5.61781   9
   0  17  -5-2.10058 4.06028   8
   0 -17   5 0.69477 3.63482  14
   0  17   6 9.78144 4.32282   5
   0  18   0 462.142 21.3273   8
   0  18  -1 9.09960 4.69441   8
   0 -18  -1-1.08011 5.56972   9
   0 -18  -1-2.30796 6.29082  11
   0  18   2 65.6111 7.55278   5
   0  18  -2 72.0470 8.26992   8
   0 -18  -2 86.4507 10.6610   9
   0  18   3 13.6517 4.94651   5
   0 -18  -3 9.26253 6.71801  11
   0  18  -3 8.40975 4.88102   8
   0 -18  -3 4.33540 5.59372   9
  -1   0  13 16.2710 7.09514   7
  -1   0  13 12.9678 7.75309   2
   1   0 -13 22.0277 8.09113  15
  -1   0  12-0.90059 6.51931   7
  -1   0  12-1.87714 6.37576   2
   1   0 -12-8.80289 7.00644  15
  -1   0  11 51.1536 8.31118   7
  -1   0  11 33.1453 7.80587   2
   1   0 -11 54.4167 8.60520  15
  -1   0  10-1.53810 5.31264   7
  -1   0  10-3.98820 6.15002   2
   1   0 -10-7.18772 5.82644  15
  -1   0   9 2222.64 63.3920  16
  -1   0   9 2177.11 64.6602  15
   1   0  -9 2227.89 67.0292  15
   1   0  -9 2198.53 63.7393  11
  -1   0   9 2089.86 67.2484   7
  -1   0   9 2129.96 67.9051   2
  -1   0   8-1.23360 4.72349   7
  -1   0   8-2.15034 4.20054  15
   1   0  -8-3.31032 4.85427  15
  -1   0   8-1.03000 1.69045  16
   1   0  -8 14.6255 8.14697   7
  -1   0   8-6.95799 5.63990   4
  -1   0   8 0.77717 1.63602  14
   1   0  -8 0.36620 2.52919  11
   1   0  -8 1.36771 7.95374   2
  -1   0   8-3.82163 5.31348   2
  -1   0   7 12.1719 3.75590  15
  -1   0   7 9.69397 2.39734  16
   1   0  -7 13.6750 4.57635  15
  -1   0   7 9.97457 4.83366   4
   1   0  -7 15.4497 6.42003   7
   1   0  -7 15.3656 5.69652   4
  -1   0   7 11.5403 2.12965  14
   1   0  -7 12.9356 6.98129   2
  -1   0   7 1.10344 4.17775   2
  -1   0   7 9.64404 4.32535   7
  -1   0   6 0.26299 1.09086  16
   1   0  -6-1.97144 2.99930  15
  -1   0   6 2.29696 2.87249  15
  -1   0   6-1.63913 3.36041   4
   1   0  -6-2.97104 4.77659   7
   1   0  -6 1.57637 3.80332   4
  -1   0   6 0.80278 1.17729  14
  -1   0   6 4.99010 3.33219   7
  -1   0   6 1.86698 3.32755   2
   1   0  -6 0.49061 4.96540   2
  -1   0   5 73.9850 4.30345  16
   1   0  -5 77.0692 5.35327  15
  -1   0   5 73.5005 5.12614  15
   1   0  -5 82.4890 4.22783  14
  -1   0   5 73.3416 5.62416   4
   1   0  -5 78.4472 6.28892   4
  -1   0   5 76.5637 3.97276  14
   1   0  -5 85.2911 6.51419   2
  -1   0   5 71.0456 5.82475   2
  -1   0   5 76.3551 5.72081   7
   1   0  -5 84.7705 6.73866   7
  -1   0   4-0.18258 0.83896  16
   1   0  -4-0.73760 1.71194  15
  -1   0   4 1.08354 1.89704  15
   1   0  -4-0.31775 2.21246   4
  -1   0   4 0.26969 2.31213   4
   1   0  -4 0.70989 1.02768  14
  -1   0   4 1.22374 0.88359  14
  -1   0   4 1.15030 1.96978   7
   1   0  -4-0.30469 3.07197   7
  -1   0   4-0.59444 2.10261   2
   1   0  -4-0.30348 2.60182   2
  -1   0   3 112.410 4.70600  16
  -1   0   3 112.234 5.17907  15
   1   0  -3 108.232 5.16980  15
   1   0  -3 110.221 4.28710  14
   1   0  -3 105.574 5.73279   4
  -1   0   3 104.720 4.20667  14
   1   0  -3 105.951 5.83753   2
  -1   0   3 110.318 5.52316   2
  -1   0   3 106.777 5.41036   7
   1   0  -3 117.987 5.89708   7
  -1   0   2-0.11483 1.00003  15
   1   0  -2 0.11859 0.91419  15
   1   0  -2 0.10019 0.57419  16
  -1   0   2 0.21039 0.54242  16
  -1   0   2 0.14008 0.97535   7
   1   0  -2-0.27825 1.27258   7
   1   0  -2 0.57060 1.17657   2
   1   0  -1 1955.47 52.7322  13
   1   0  -1 1967.93 52.1744  12
  -1   0   1 1901.73 52.7222  13
  -1   0   1 1957.18 52.2185  12
   1   0  -1 1963.94 52.6458  16
  -1   0   1 1941.98 52.6662  16
   1   0  -1 1934.90 52.7062  17
  -1   0   1 1923.18 52.8897   3
   1   0  -1 2009.85 52.9881   3
   1   0  -1 2013.30 52.9336   1
   1   0   0 0.05695 0.30218  12
  -1   0   0-0.05798 0.28082  12
  -1   0   0-0.20057 0.58150   3
   1   0   0 0.30412 0.66479   3
   1   0   0 0.07028 0.33469  11
  -1   0   0 0.30302 0.41834  11
   1   0   0-0.10645 0.46113   1
  -1   0   0 0.10023 0.53178   1
  -1   0  -1 2170.14 57.6951  12
   1   0   1 2145.65 58.1076  11
  -1   0  -1 2079.06 58.0856  11
  -1   0  -2 0.68008 1.40233  11
   1   0   2 0.26353 0.40556  16
   1   0   3 95.1084 5.74917  15
  -1   0  -3 100.349 5.13682  11
   1   0   3 91.7971 3.54723  16
   1   0   3 92.4928 6.82929   2
   1   0   4-0.11800 0.70775  16
   1   0   4 0.64650 2.94292  15
   1   0   4 6.51861 4.56511   7
  -1   0  -4 1.23296 0.98511  12
  -1   0  -4 0.84013 1.60489  11
   1   0   4 0.97793 3.69423   2
   1   0   5 75.8661 3.89868  16
   1   0   5 79.0712 6.42225  15
   1   0   5 86.2173 7.88841   4
  -1   0  -5 77.8545 4.39186  12
  -1   0  -5 79.4847 5.46870  11
   1   0   5 92.8537 8.24057   7
   1   0   5 93.8198 8.34835   2
   1   0   6-2.14634 4.05295  15
   1   0   6-1.34004 1.14826  16
   1   0   6-0.65941 5.88903   7
   1   0   6 3.88309 5.61439   4
  -1   0  -6 0.46852 1.32652  12
  -1   0  -6-0.38544 2.38589  11
   1   0   6-2.60536 6.12257   2
   1   0   7 306.199 11.9619  14
   1   0   7 290.699 14.2509  15
  -1   0  -7 302.003 11.5422  12
  -1   0  -7 316.986 13.6541  11
   1   0   7 329.532 16.5668   4
   1   0   7 293.003 16.9707   7
   1   0   7 305.535 16.9569   2
   1   0   8 4.81982 7.13880   2
   1   0   8-2.43704 7.93425   7
  -1   0  -8-0.29103 1.92586  12
   1   0   9 16.6469 7.43771   2
   1   0   9 7.05489 7.36325   7
   1   0  10 2.83844 7.43770   2
   1   0  10-12.2370 8.84943   7
   1   0  11 83.0859 11.5077   2
   1   0  11 96.5554 12.0114   7
   1   0  12-3.19539 8.68394   2
   1   0  12-3.12330 7.30761   7
  -1  -1  13 92.9318 11.3900   2
  -1   1  13 86.4327 11.1898   2
   1  -1 -13 96.6187 11.9011  15
  -1  -1  13 77.7218 10.6808   7
  -1   1  13 95.9911 11.0736   7
  -1   1  12 15.8862 6.97011   2
  -1  -1  12 17.8822 7.30990   2
  -1   1  12 3.54006 6.17036   7
  -1  -1  12 7.31691 6.37618   7
   1  -1 -12 19.0326 7.94011  15
   1   1 -12 14.5200 7.59704  15
  -1  -1  11 115.891 11.3467   7
  -1   1  11 111.972 10.9192   7
  -1   1  11 120.679 11.7473   2
  -1  -1  11 124.113 11.3042   2
   1  -1 -11 114.470 11.1618  15
   1   1 -11 114.611 10.8981  15
  -1  -1  10 150.164 11.7817   7
  -1   1  10 153.760 11.7099   7
  -1  -1  10 128.788 11.6185   2
  -1   1  10 144.470 12.1023   2
   1  -1 -10 151.005 11.7266  15
   1   1 -10 163.826 11.6934  15
  -1   1   9 0.68021 5.06828   7
  -1  -1   9 0.70780 5.83789   7
  -1  -1   9-0.46289 4.15416  15
   1  -1  -9 7.20443 5.84915  15
  -1   1   9-0.38286 2.60046  16
  -1  -1   9-5.03376 2.88513  16
   1   1  -9 3.07058 5.69551  15
  -1  -1   9 2.57044 2.29067  14
   1   1  -9 7.56333 3.46567  11
  -1  -1   9 1.44162 6.08032   2
  -1   1   9-2.14747 6.26619   2
  -1  -1   8 0.63817 5.44258   2
   1   1  -8 0.68585 8.51260   2
   1  -1  -8 5.47129 8.44540   2
  -1   1   8-0.63376 5.31709   2
  -1   1   8 7.24007 2.15710  16
  -1   1   8 2.21415 3.97487  15
  -1  -1   8 2.42916 1.84279  16
   1   1  -8 0.53291 4.49593  15
   1  -1  -8 2.28508 4.87218  15
  -1  -1   8 1.25058 4.18740  15
  -1   1   8 2.13051 4.89525   4
  -1  -1   8 2.14632 5.34769   4
   1   1  -8 9.87576 8.39238   7
   1  -1  -8 19.9964 8.60169   7
  -1   1   8 2.89938 1.56726  14
  -1  -1   8 2.06606 1.84711  14
   1   1  -8 2.61115 2.55618  11
  -1  -1   8 1.25668 4.78026   7
  -1   1   8 1.20579 4.52434   7
  -1   1   7 1143.87 34.5779  16
  -1  -1   7 1104.39 34.5781  16
  -1  -1   7 1155.53 34.0590  14
  -1   1   7 1181.90 36.0461  15
   1  -1  -7 1143.86 37.1454  15
   1   1  -7 1099.36 36.4792  15
  -1  -1   7 1178.74 35.8286  15
  -1  -1   7 1165.38 37.2037   4
   1   1  -7 1159.63 39.1270   4
  -1   1   7 1168.80 37.2418   4
   1  -1  -7 1160.79 39.2927   4
   1   1  -7 1149.66 34.8551  11
  -1   1   7 1136.41 33.0609  14
  -1  -1   7 1102.07 37.9294   7
  -1   1   7 1114.84 37.4565   7
   1  -1  -7 1117.50 38.6612   7
   1   1  -7 1166.82 39.2050   7
  -1   1   7 1100.64 37.9337   2
   1  -1  -7 1130.31 38.6127   2
   1   1  -7 1148.72 38.8496   2
  -1  -1   7 1138.10 37.8918   2
   1   1  -6 0.49264 5.28168   2
  -1   1   6-0.92866 3.28477   2
  -1  -1   6 0.46774 3.28296   2
   1  -1  -6 3.43045 4.82560   2
  -1   1   6-0.26448 1.14582  16
  -1  -1   6-0.94153 2.97612  15
   1  -1  -6 1.23817 3.05350  15
  -1   1   6 0.34179 2.99203  15
   1   1  -6 0.37689 3.07263  15
  -1  -1   6 0.79568 1.10015  16
   1   1  -6 0.50504 4.80995   7
   1  -1  -6-0.52482 3.82696   4
   1   1  -6 6.32916 4.42459   4
   1  -1  -6 0.48666 4.71419   7
  -1   1   6-0.40803 3.36547   4
  -1  -1   6-2.05311 3.48277   4
  -1   1   6 1.00463 1.02590  14
   1  -1  -6 1.06371 0.85706  12
  -1  -1   6 1.17081 1.38910  14
   1   1  -6 0.27414 1.64421  11
  -1  -1   6 0.46451 3.23432   7
  -1   1   6-1.32339 2.86651   7
   1   1  -5 414.562 13.5149  16
  -1  -1   5 392.258 13.6098  16
  -1   1   5 394.628 13.6528  16
  -1  -1   5 377.185 14.0597  15
  -1   1   5 401.356 14.5251  15
  -1  -1   5 442.565 13.6009  14
   1   1  -5 389.965 14.6854  15
   1  -1  -5 397.562 12.7323  14
   1   1  -5 404.557 13.5546  14
   1  -1  -5 420.726 15.2429  15
  -1  -1   5 407.442 15.2842   4
   1  -1  -5 414.175 16.0796   4
   1   1  -5 391.172 15.9437   4
  -1   1   5 413.937 15.2615   4
   1   1  -5 401.502 13.6918  11
  -1   1   5 390.058 12.4887  14
   1  -1  -5 403.070 11.7433  12
  -1   1   5 378.356 15.3097   2
  -1  -1   5 385.671 15.5306   2
   1  -1  -5 431.352 16.2065   2
   1   1  -5 406.758 16.0179   2
  -1  -1   5 379.203 15.3209   7
   1   1  -5 378.426 16.1139   7
   1  -1  -5 398.663 15.9515   7
  -1   1   5 366.993 15.0270   7
   1   1  -4 18.7745 1.94791  16
  -1  -1   4 22.1978 2.07050  16
  -1   1   4 19.6452 1.95093  16
   1  -1  -4 16.3167 2.48264  15
   1   1  -4 23.7828 2.19280  14
   1  -1  -4 21.8495 1.76091  14
  -1  -1   4 22.7799 2.61323  15
  -1  -1   4 23.4665 2.04731  14
  -1   1   4 25.0011 2.88409  15
   1   1  -4 24.0310 2.69767  15
   1   1  -4 13.7454 2.92308   4
   1  -1  -4 20.6174 3.27094   4
  -1  -1   4 26.7626 3.30803   4
  -1   1   4 16.8888 2.84065   4
   1  -1  -4 20.7800 1.19455  12
  -1  -1   4 21.7310 3.08715   7
  -1  -1   4 23.4052 1.64364   8
  -1   1   4 24.8477 3.08112   7
   1  -1  -4 17.4604 3.75225   7
   1   1  -4 19.5280 3.94920   7
  -1   1   4 16.5473 2.79726   2
  -1  -1   4 21.1495 2.95127   2
   1  -1  -4 24.2370 3.54787   2
   1   1  -4 23.5112 3.70521   2
   1  -1  -3 126.903 6.39068   2
  -1  -1   3 143.534 6.42469   2
   1   1  -3 122.997 6.37044   2
  -1   1   3 136.853 6.22024   2
  -1  -1   3 136.368 5.43106  16
   1   1  -3 132.580 5.36446  16
   1   1  -3 126.440 5.63037  15
   1  -1  -3 137.911 6.13141  15
   1   1  -3 134.185 5.24779  14
  -1   1   3 121.761 5.70493  15
  -1  -1   3 139.763 5.62820  15
   1  -1  -3 123.592 6.23078   4
   1   1  -3 115.787 6.23565   4
  -1  -1   3 137.589 5.24074  14
   1  -1  -3 132.437 4.68912  14
   1  -1  -3 142.771 4.94769  10
  -1   1   3 127.800 6.07630   7
  -1  -1   3 120.569 6.06606   7
   1  -1  -3 134.518 6.31329   7
  -1  -1   3 135.723 4.47728   8
   1   1  -3 144.250 6.76114   7
  -1  -1   2 0.44509 1.16617   7
   1  -1  -2-0.13079 1.35871   7
   1   1  -2-0.88744 1.45649   7
  -1   1   2 1.53232 0.56218  10
   1   1  -2 0.40906 0.96564  15
  -1  -1   2-0.10000 1.07948  15
   1  -1  -2-0.27064 1.00836  15
  -1   1   2 0.12981 1.19300  15
   1   1  -2 0.42223 0.70486  16
  -1  -1   2 0.11343 0.58503  16
  -1  -1   2 0.29162 0.57680  14
   1   1  -2 0.75646 0.66382  14
   1   1  -2 0.76780 0.56991  11
   1  -1  -2 1.17941 0.67425  10
   1   1  -2-0.14416 1.30012   2
   1  -1  -2 1.56398 1.46088   2
   1   1  -1 16.9460 1.16417  16
  -1  -1   1 18.5720 1.21568   6
   1   1  -1 20.3868 1.19905   6
  -1  -1   1 17.7630 1.31371  13
   1   1  -1 16.7451 1.26155  13
   1  -1  -1 16.6945 1.05783  13
   1  -1  -1 16.5391 1.25890   9
   1  -1  -1 17.0502 1.02114   8
  -1   1   1 17.2377 1.00440   8
  -1   1   1 17.5360 1.26480   9
   1  -1  -1 17.0294 1.23449   1
   1   1  -1 21.4656 1.34977   1
  -1  -1   1 17.6665 1.24376   3
   1   1  -1 19.3215 1.31785   3
  -1   1   1 19.2049 1.27665   3
   1  -1  -1 18.7181 1.31646   3
  -1  -1   0 6.45736 0.86553  17
   1   1   0 4.98123 0.75922  17
  -1  -1   0 5.55201 1.16779  18
   1   1   0 4.30087 0.84148   1
  -1   1   0 5.57138 0.85168   1
  -1  -1   0 5.82177 0.89937   1
   1  -1   0 5.54943 0.89210   1
  -1  -1   0 5.10706 0.67909  12
   1   1   0 4.37602 0.62873  12
   1   1   0 6.23755 0.95082   3
   1  -1   0 7.00491 1.06452   3
  -1   1   0 6.16012 0.90340   3
  -1  -1   0 4.10840 0.82020   3
  -1   1   0 7.50616 1.12755  11
   1  -1   0 8.21217 1.15027  11
   1  -1   1 5.97236 1.22168  11
  -1   1  -1 5.28166 1.29223  11
  -1  -1  -1 5.45783 0.85905  12
   1   1   1 8.40014 0.97591  12
   1   1   2 214.879 9.14731  15
   1  -1   2 230.049 8.57241  11
  -1  -1  -2 241.348 7.83915  12
   1   1   2 233.731 7.74228  12
  -1   1  -2 231.606 8.70005  11
  -1   1  -2 231.898 6.84121  16
  -1   1  -3 1733.90 48.9847  11
  -1  -1  -3 1741.29 47.5497  12
   1  -1   3 1661.76 51.1189   2
   1   1   3 1688.16 51.1617   2
   1  -1   3 1741.77 49.3853  15
   1   1   3 1682.28 49.4778  15
   1  -1   4 134.425 5.24497  16
   1  -1   4 139.687 7.59311  15
   1   1   4 140.027 7.62012  15
  -1   1  -4 148.128 7.27527  11
  -1  -1  -4 142.201 5.91062  12
   1   1   4 140.420 9.21488   2
   1  -1   4 146.170 9.34884   2
   1  -1   4 153.180 9.59340   7
   1   1   4 144.925 9.25383   7
   1  -1   5 2435.55 68.1216  16
   1   1   5 2470.89 68.2759  16
   1   1   5 2567.57 71.8572  15
   1  -1   5 2528.19 71.3767  15
   1   1   5 2577.00 73.3677   4
   1  -1   5 2589.25 73.5360   4
  -1   1  -5 2488.80 71.0976  11
  -1  -1  -5 2477.32 68.8648  12
   1  -1   5 2512.87 74.5392   7
   1   1   5 2472.95 74.1902   7
   1  -1   5 2428.05 74.2270   2
   1   1   5 2516.93 74.2797   2
   1   1   6 27.0398 2.47589  16
   1  -1   6 25.5282 2.45731  16
   1  -1   6 29.3668 5.00011  15
   1   1   6 32.3575 5.19296  15
   1   1   6 23.9014 6.40042   7
   1  -1   6 20.1028 6.11315   7
   1   1   6 43.5918 7.03911   4
   1  -1   6 28.8969 6.48364   4
  -1  -1  -6 29.6097 2.87873  12
  -1   1  -6 30.5851 4.09378  11
  -1  -1  -6 20.8779 3.35621  11
   1  -1   6 19.5929 6.39224   2
   1   1   6 24.6116 6.83765   2
   1   1   7 37.4496 6.15256  15
   1  -1   7 38.8885 4.28060  14
   1  -1   7 51.9764 6.34889  15
   1   1   7 37.3793 3.64233  14
   1  -1   7 34.5032 8.26766   7
   1  -1   7 33.0059 7.53936   4
   1   1   7 48.4115 8.72713   7
   1   1   7 32.1874 7.41463   4
  -1  -1  -7 38.5309 3.60156  12
  -1  -1  -7 36.8327 4.57266  11
  -1   1  -7 35.2163 4.85981  11
   1   1   7 42.0838 7.74045   2
   1  -1   7 50.4070 8.23501   2
  -1   1  -8 19.0961 2.90641  12
   1  -1   8 16.7449 3.39815  14
   1   1   8 19.9902 7.63064   2
   1  -1   8 20.9407 5.69748  15
   1   1   8 5.58748 7.84293   7
   1  -1   8 10.7114 7.89574   7
   1  -1   9 12.2815 7.40007   2
   1   1   9-0.87253 6.45546   2
   1  -1   9-5.36311 7.54014   7
   1   1   9-9.53711 8.25743   7
   1  -1  10 28.4122 8.72092   2
   1   1  10 18.8522 8.05733   2
   1   1  10 20.3947 8.99701   7
   1  -1  10 17.1672 8.32464   7
   1   1  11-2.01956 8.13603   2
   1  -1  11 13.1817 8.69421   2
   1   1  11 6.85947 7.45535   7
   1  -1  11 6.04766 7.56414   7
   1   1  12 18.0530 9.40156   2
   1  -1  12 14.9184 8.28108   2
   1  -1  12 10.5301 7.80391   7
   1   1  12 27.6816 8.66044   7
  -1   2  13 60.9235 9.78326   7
  -1  -2  13 63.9453 10.1056   2
  -1   2  13 86.8022 11.2363   2
   1  -2 -13 90.9574 11.9471  15
  -1   2  12 5.20231 6.32968   7
  -1  -2  12 11.1164 7.37862   7
  -1   2  12 12.0725 7.02270   2
  -1  -2  12 15.0653 7.02224   2
   1  -2 -12 15.8102 7.45314  15
  -1  -2  11 71.6801 9.55555   7
  -1   2  11 68.3577 9.09940   7
  -1   2  11 94.8933 10.1369   2
  -1  -2  11 92.6790 10.4412   2
   1   2 -11 74.0840 9.45307  15
   1  -2 -11 81.2466 10.1757  15
  -1  -2  10-0.79306 5.38665   7
  -1   2  10-0.73679 5.29301   7
  -1   2  10 0.78832 5.62012   2
  -1  -2  10-5.60009 6.16721   2
   1  -2 -10 3.04753 5.51455  15
   1   2 -10 4.01563 5.09101  15
  -1   2   9 446.911 16.4977  16
  -1  -2   9 423.676 15.9791  14
   1  -2  -9 409.010 19.5639  15
   1   2  -9 418.073 18.8798  15
  -1  -2   9 475.116 17.8269  15
   1   2  -9 437.552 17.1408  11
  -1   2   9 405.686 19.3285   7
  -1  -2   9 392.299 19.8494   7
  -1  -2   9 397.093 20.0934   2
  -1   2   9 421.145 20.0906   2
  -1  -2   8 0.63824 5.20334   2
   1   2  -8-5.49771 8.22058   2
   1  -2  -8-3.41954 8.29206   2
  -1   2   8 1.25811 5.12840   2
  -1   2   8 0.69702 1.68796  16
  -1   2   8 2.27344 4.02067  15
   1  -2  -8 6.48990 5.29480  15
   1   2  -8 8.20457 4.92563  15
  -1  -2   8-4.42361 4.02323  15
   1   2  -8 10.0190 8.67685   7
   1  -2  -8 8.88691 8.57019   7
  -1  -2   8-1.07149 5.31774   4
  -1   2   8-3.17274 5.22785   4
  -1  -2   8-0.66047 1.82364  14
   1   2  -8 1.16964 2.53346  11
  -1  -2   8-3.19605 4.79617   7
  -1   2   8-5.29039 4.98568   7
  -1   2   7 264.390 10.9756  16
  -1  -2   7 258.341 10.9827  16
  -1   2   7 278.422 12.6486  15
   1  -2  -7 260.469 13.2796  15
  -1  -2   7 275.597 11.0648  14
   1   2  -7 269.903 12.7073  15
  -1  -2   7 269.719 11.8189  15
   1  -2  -7 269.879 14.8250   4
   1   2  -7 281.505 15.0698   4
  -1  -2   7 291.437 13.4979   4
  -1   2   7 280.013 13.4000   4
   1   2  -7 242.376 11.1126  11
  -1  -2   7 279.156 10.3095   8
  -1  -2   7 297.100 14.3754   7
  -1   2   7 281.685 13.5950   7
   1   2  -7 282.588 15.4528   7
   1  -2  -7 269.205 14.9939   7
   1   2  -7 289.855 15.4434   2
  -1   2   7 276.923 13.9930   2
  -1  -2   7 264.143 13.8013   2
   1  -2  -7 260.183 14.7752   2
   1   2  -6 4.95544 5.03854   2
  -1  -2   6 8.42809 3.47001   2
   1  -2  -6 11.7969 5.50169   2
  -1   2   6 5.07758 3.39661   2
   1   2  -6 7.72746 1.72023  16
  -1   2   6 11.9269 1.95778  16
  -1   2   6 12.7720 3.45683  15
  -1  -2   6 5.37294 2.73783  15
   1  -2  -6 3.44577 3.12414  15
   1   2  -6 7.86171 3.11875  15
  -1  -2   6 6.59503 1.60619  16
   1  -2  -6 14.1986 4.67773   4
  -1   2   6 6.88011 3.67271   4
   1   2  -6 10.0878 4.33321   4
   1   2  -6 6.19538 5.24906   7
  -1  -2   6 2.86918 3.40607   4
   1  -2  -6 8.17176 5.19248   7
   1  -2  -6 8.95471 1.25270  12
  -1  -2   6 5.60969 1.77920  14
   1   2  -6 6.91885 2.01743  11
  -1  -2   6 6.16494 3.43843   7
  -1   2   6 11.1103 3.55047   7
  -1  -2   6 6.55699 1.72552   8
   1   2  -5 121.717 5.66890  16
  -1  -2   5 115.443 5.73927  16
  -1   2   5 121.215 6.65484  15
  -1  -2   5 108.520 6.04469  15
   1   2  -5 115.663 5.95641  14
   1   2  -5 116.505 6.49639  15
  -1  -2   5 117.450 5.80889  14
   1  -2  -5 119.821 4.81483  14
   1  -2  -5 119.860 7.15998  15
  -1   2   5 120.037 7.12257   4
   1  -2  -5 121.325 7.79293   4
   1   2  -5 120.251 7.77394   4
  -1  -2   5 130.975 7.40502   4
   1  -2  -5 120.021 4.34797  12
   1   2  -5 118.487 5.85101  11
  -1   2   5 107.038 6.73954   7
   1   2  -5 103.419 7.76801   7
  -1  -2   5 109.710 7.20674   7
  -1  -2   5 114.432 5.06140   8
   1  -2  -5 135.145 8.01826   7
   1   2  -5 114.343 7.64804   2
  -1   2   5 117.982 7.34523   2
  -1  -2   5 103.562 7.06636   2
   1  -2  -5 128.995 7.85213   2
   1  -2  -4 0.90987 2.48712   2
  -1  -2   4 1.48809 1.96944   2
  -1   2   4-0.29250 1.91822   2
   1   2  -4 3.38388 2.78743   2
   1   2  -4-0.17906 1.00148  16
   1  -2  -4 1.96516 1.97043  15
  -1  -2   4 0.37148 1.40333  15
   1   2  -4 2.33018 1.55602  15
  -1   2   4-0.49082 2.00073  15
   1  -2  -4 1.90323 2.47728   4
  -1  -2   4-0.53970 2.03880   4
   1   2  -4 1.93219 2.34823   4
  -1   2   4-1.85927 2.34873   4
   1   2  -4-0.39398 1.33802  14
  -1  -2   4 1.77444 1.20792  14
   1  -2  -4 0.75784 0.62130  14
   1   2  -4-0.54423 1.17884  11
   1  -2  -4-0.16813 1.03008  10
   1  -2  -4-0.28876 3.07476   7
   1   2  -4-0.32670 3.24283   7
  -1   2   4 0.52651 1.91965   7
  -1  -2   4-0.24815 0.99357   8
  -1  -2   4 1.53337 1.97427   7
   1  -2  -3 84.0885 5.23501   2
   1   2  -3 97.1562 5.38701   2
  -1   2   3 84.8328 4.87383   2
  -1  -2   3 88.7478 4.96610   2
   1   2  -3 97.3961 4.33093  16
  -1   2   3 87.9976 4.81773  15
  -1  -2   3 92.2164 4.20254  15
   1  -2  -3 96.0262 5.08572  15
  -1  -2   3 95.9835 4.37688  14
   1   2  -3 99.8458 4.53987  14
   1   2  -3 101.228 4.46523  15
   1   2  -3 95.2750 5.21122   4
   1  -2  -3 79.1574 4.93087   4
  -1  -2   3 94.3683 3.72059   5
   1  -2  -3 89.8895 3.22450   6
  -1   2   3 89.5504 2.99716  12
   1   2  -3 91.3463 4.06670  11
   1  -2  -3 90.1217 4.11219  10
   1   2  -3 106.768 3.85890   8
   1  -2  -3 102.121 5.16115   7
  -1  -2   3 91.7220 5.18946   7
  -1   2   3 89.5676 4.75716   7
   1   2  -3 93.2739 5.39605   7
   1   2  -2 512.641 15.4315   7
   1  -2  -2 473.701 14.7988   7
  -1  -2   2 531.595 15.5005   7
   1  -2  -2 498.974 15.2535  15
  -1  -2   2 497.554 14.8460  14
   1   2  -2 498.688 14.8199  14
  -1   2   2 506.508 15.3031  15
   1   2  -2 482.829 14.2832  15
  -1   2   2 470.206 14.0714   5
   1   2  -2 485.070 14.1673   5
  -1  -2   2 503.932 14.1558   5
  -1  -2   2 486.891 14.0952  11
   1   2  -2 506.728 14.9419  13
   1  -2  -2 480.325 14.8111  10
  -1   2   2 487.157 14.6050  10
   1   2  -2 492.721 14.3722  11
   1   2  -2 524.412 15.3027   2
   1  -2  -2 465.814 15.0403   2
   1  -2  -1 277.328 8.39955   3
  -1   2   1 266.487 8.35542   3
   1   2  -1 279.460 8.41441   3
  -1  -2   1 273.181 8.36669   3
  -1  -2   1 272.979 10.2465  18
   1   2  -1 280.575 10.4887  18
   1   2  -1 272.892 8.78462   6
   1  -2  -1 263.127 8.34698   5
  -1  -2   1 267.498 8.87387   6
   1  -2  -1 271.286 8.39235   1
   1   2  -1 273.704 8.39740   1
   1   2  -1 282.869 8.72575  13
  -1  -2   1 269.845 8.68039  13
   1   2  -1 275.600 8.42293  14
  -1  -2   1 273.192 8.46232  14
   1   2  -1 265.138 8.13980  10
   1  -2  -1 272.001 9.10075   9
  -1   2   1 269.883 8.45158   8
  -1   2   1 284.473 9.12480   9
  -1  -2   0 1078.91 29.5729   3
  -1   2   0 1017.08 29.4701   3
   1   2   0 1087.47 29.7346   1
   1  -2   0 1045.37 29.6486   1
  -1  -2   0 1086.34 29.5838   1
  -1   2   0 1037.04 29.4932   1
  -1  -2   0 1078.78 31.0886  18
   1  -2   0 1035.65 29.4355  18
   1   2   0 1096.44 29.8268  17
  -1  -2   0 1126.07 29.9238  17
  -1  -2   0 1100.39 29.8235   6
   1   2   0 1076.54 29.6535   3
   1  -2   0 1024.55 29.5375   3
  -1   2   0 1086.62 30.8897  11
   1  -2   0 1058.71 30.8620  11
  -1  -2   0 1055.47 29.3189  10
  -1   2   0 1070.68 29.6891   8
   1  -2   0 1025.66 29.6140   8
   1   2   1 2116.14 58.4932  12
   1  -2   1 2129.90 59.8766  11
  -1   2  -1 2138.66 60.0713  11
  -1  -2  -1 2212.17 58.6185  17
  -1  -2  -2 18.6540 1.68164  12
   1   2   2 15.2156 1.54135  12
   1   2   2 16.5754 3.05591  15
   1  -2   2 16.6620 2.27001  11
  -1   2  -2 15.4102 2.41314  11
   1  -2   2 25.0264 4.25486   2
   1   2   2 15.2992 4.24980   2
  -1   2  -3 846.874 24.0518  16
   1  -2   3 878.806 26.5447  15
   1   2   3 865.710 26.7777  15
  -1  -2  -3 881.839 25.0479  12
   1   2   3 864.430 24.7380  12
   1  -2   3 851.460 26.2836  11
  -1   2  -3 842.722 26.5210  11
   1  -2   3 839.020 28.2829   2
   1   2   3 821.913 28.0546   2
  -1   2  -4 0.23828 0.72225  16
   1  -2   4 0.30738 2.83775  15
  -1  -2  -4-1.22356 2.60070  15
   1   2   4-0.67439 2.98172  15
   1  -2   4 10.4062 4.50797   7
   1   2   4 3.33244 4.12464   7
  -1  -2  -4-0.18508 1.08558  12
   1  -2   4-1.21724 1.54582  11
  -1   2  -4-0.97000 1.91797  11
   1   2   4-3.36624 3.68267   2
   1  -2   4 6.37587 4.31518   2
   1   2   5 404.449 17.5628   7
   1  -2   5 402.376 18.1719   7
  -1  -2  -5 374.342 16.3500  15
   1   2   5 392.874 15.6894  15
   1  -2   5 369.150 15.1358  15
   1   2   5 385.012 16.7057   4
   1  -2   5 380.780 16.8188   4
  -1  -2  -5 400.908 13.2431  12
  -1   2  -5 397.752 15.2222  11
   1  -2   5 377.504 17.5222   2
   1   2   5 371.300 17.1939   2
   1   2   6 2.92258 1.23930  16
  -1  -2  -6 0.57293 4.08486  15
   1   2   6 3.56801 4.21117  15
   1  -2   6 2.04711 4.04804  15
   1  -2   6 3.40295 5.80401   7
   1  -2   6 6.11904 5.73669   4
   1   2   6 5.47986 5.87529   4
   1   2   6 1.26157 5.95573   7
  -1  -2  -6 0.23797 1.41247  12
   1   2   6 2.25508 1.75146  14
  -1   2  -6 0.85673 2.70557  11
   1   2   6-2.56802 5.89998   2
   1  -2   6 3.26411 6.19073   2
   1  -2   7 583.294 26.2796   7
   1   2   7 601.039 25.8443   7
   1  -2   7 646.621 23.3808  15
   1  -2   7 598.658 21.6522  14
   1   2   7 654.534 23.8362  15
   1   2   7 654.432 25.3505   4
   1  -2   7 703.163 26.0513   4
  -1  -2  -7 629.160 20.5917  12
  -1   2  -7 686.630 23.7217  11
   1   2   7 609.692 26.1408   2
   1  -2   7 622.203 26.3020   2
   1   2   8 214.544 14.6048   2
   1  -2   8 211.522 14.6858   2
   1  -2   8 240.392 12.4527  15
   1  -2   8 217.726 10.5197  14
   1   2   8 226.642 15.5658   7
   1  -2   8 197.770 15.0808   7
   1   2   9 46.0225 8.66804   2
   1  -2   9 57.8718 9.31690   2
   1  -2   9 25.3169 8.58317   7
   1   2   9 56.9474 9.81515   7
   1  -2  10 29.3394 8.62059   2
   1   2  10 4.68368 7.55117   2
   1   2  10 10.0027 7.92399   7
   1  -2  10-1.92878 8.65894   7
   1   2  11 152.481 14.3623   2
   1  -2  11 164.141 14.7402   2
   1  -2  11 170.052 14.7799   7
   1   2  11 174.141 14.5687   7
   1  -2  12 26.5843 9.36762   7
   1   2  12 25.1951 8.65285   7
   1   2  12 7.39642 8.72756   2
   1  -2  12 12.7902 8.65079   2
  -1   3  13 5.40587 6.90066   7
   1  -3 -13 3.09925 7.64398  15
   1  -3 -12 101.724 11.7461  15
  -1  -3  12 72.0798 10.1859   7
  -1   3  12 67.6841 9.34003   7
  -1   3  12 89.9140 10.5371   2
  -1  -3  12 74.2516 10.4922   2
   1  -3 -11-0.86660 6.41309  15
  -1   3  11-0.78389 5.75982   7
  -1  -3  11 6.11550 6.27788   7
  -1  -3  11 9.60650 6.50879   2
  -1   3  11 18.8011 7.24988   2
   1   3 -10 34.1696 6.86630  15
   1  -3 -10 42.1675 7.75358  15
  -1  -3  10 31.1184 7.12579   2
  -1   3  10 39.0404 7.34233   2
  -1   3  10 38.0240 6.90514   7
  -1  -3  10 44.1776 7.77971   7
  -1   3   9 20.0883 3.31263  16
   1  -3  -9 34.6977 7.17702  15
   1   3  -9 14.7613 5.59453  15
  -1  -3   9 23.6476 3.44044  14
  -1  -3   9 1.43789 6.34906   2
  -1   3   9 13.3694 6.42935   2
   1  -3  -9 27.9813 3.93336  10
  -1   3   9 20.6566 5.92970   7
  -1  -3   9 21.0976 6.42407   7
   1   3  -8 40.3358 3.73786  16
  -1   3   8 53.0201 4.47617  16
  -1  -3   8 40.5067 4.27168  14
  -1   3   8 44.7080 5.73438  15
   1  -3  -8 36.4641 6.75612  15
   1   3  -8 46.2373 6.54155  15
  -1  -3   8 39.3644 5.08521  15
   1   3  -8 43.4970 9.61726   2
  -1  -3   8 39.4966 6.86893   2
   1  -3  -8 44.6395 9.62448   2
  -1   3   8 36.1408 6.51615   2
  -1   3   8 33.5179 6.30668   4
   1   3  -8 59.6519 10.4485   7
   1  -3  -8 48.9195 9.82170   7
  -1  -3   8 40.5911 6.21631   4
   1   3  -8 33.2597 4.44510  11
   1  -3  -8 35.2014 4.20076  10
  -1   3   8 51.3293 6.77745   7
  -1  -3   8 37.5929 6.54892   7
   1  -3  -7 553.504 22.5243   2
   1   3  -7 516.594 22.1596   2
  -1  -3   7 497.284 20.8752   2
  -1   3   7 525.087 21.0302   2
   1  -3  -7 522.857 20.8824  15
  -1  -3   7 524.594 18.4229  14
  -1   3   7 541.557 19.7686  15
   1   3  -7 493.844 19.4653  15
  -1  -3   7 539.344 18.7865  15
   1   3  -7 543.671 17.9779  16
  -1  -3   7 540.782 20.4954   4
  -1   3   7 532.857 20.3521   4
   1  -3  -7 522.557 18.1371  10
   1   3  -7 523.260 18.7289  11
   1  -3  -7 556.635 22.2257   7
  -1   3   7 488.927 20.1806   7
  -1  -3   7 523.058 17.3166   8
  -1  -3   7 503.339 21.1190   7
   1   3  -7 534.798 22.7393   7
  -1  -3   6 226.150 11.5454   2
   1   3  -6 235.317 12.6026   2
   1  -3  -6 220.381 12.2086   2
  -1   3   6 217.896 11.3291   2
  -1  -3   6 230.940 9.72224  15
   1   3  -6 212.786 10.1403  15
  -1   3   6 215.941 10.4301  15
  -1  -3   6 235.821 9.70342  14
   1  -3  -6 195.183 10.7547  15
   1   3  -6 227.512 9.14946  16
  -1  -3   6 224.347 10.9561   4
   1  -3  -6 203.765 11.8937   4
   1   3  -6 236.780 12.3275   4
  -1   3   6 214.278 10.8417   4
   1   3  -6 226.320 9.74891  11
   1  -3  -6 224.708 9.33027  10
  -1  -3   6 221.046 11.5424   7
  -1   3   6 221.874 10.9250   7
  -1  -3   6 225.447 8.74303   8
   1   3  -6 234.426 12.8299   7
   1  -3  -6 230.297 12.0878   7
   1  -3  -5 611.911 22.0925   2
  -1  -3   5 585.900 21.6675   2
   1   3  -5 651.099 22.4055   2
  -1   3   5 648.130 21.9252   2
   1   3  -5 661.184 19.8614  16
   1  -3  -5 617.571 18.0386  14
  -1   3   5 618.748 20.9196  15
  -1  -3   5 629.310 20.2805  14
   1  -3  -5 608.536 21.6666  15
  -1  -3   5 636.961 19.9425  15
   1   3  -5 599.562 20.2387  15
  -1  -3   5 665.571 21.5371   4
   1   3  -5 629.165 22.3692   4
   1  -3  -5 603.604 22.0991   4
  -1   3   5 638.709 21.3346   4
   1  -3  -5 623.749 18.1857   6
   1   3  -5 647.763 20.3056  11
   1  -3  -5 610.352 19.7648  10
  -1  -3   5 669.285 22.2811   7
  -1   3   5 618.230 21.0644   7
   1   3  -5 588.452 22.4953   7
  -1  -3   5 620.914 19.1581   8
   1  -3  -5 629.394 21.9765   7
  -1  -3   4 2.20097 2.13573   7
  -1   3   4 3.98581 1.95803   7
   1  -3  -4 1.79375 2.16398  15
  -1   3   4 1.55153 1.78602  15
  -1  -3   4 0.50664 1.36883  15
   1   3  -4 2.34450 1.66621  15
   1   3  -4 0.94706 0.99110  16
   1  -3  -4-0.84646 2.82283   7
   1   3  -4-0.33919 3.28573   7
  -1  -3   4 0.80641 2.24251   4
   1   3  -4 1.30158 2.47529   4
   1  -3  -4-0.31867 2.39118   4
   1  -3  -4 0.10157 0.78323   6
  -1   3   4 1.02003 0.58644  12
   1   3  -4 0.90199 1.62006  14
   1  -3  -4 0.22795 0.58610  14
  -1  -3   4 1.59666 1.29165  14
  -1  -3   4 1.10054 1.06378  11
   1  -3  -4 0.20772 1.05538  10
   1   3  -4 0.21606 1.36457  11
   1   3  -4 0.31099 2.66632   2
  -1  -3   4 1.77780 1.94322   2
  -1   3   4 0.28769 1.83457   2
   1  -3  -4 1.52530 2.50170   2
  -1   3   3 236.518 8.90309   7
   1  -3  -3 227.023 9.07370   7
   1   3  -3 237.909 8.34542   8
  -1  -3   3 259.778 9.68883   7
   1   3  -3 248.230 9.87959   7
   1   3  -3 269.816 9.28724  14
   1  -3  -3 246.051 9.55220  15
  -1   3   3 244.365 9.30876  15
  -1  -3   3 257.745 9.08893  14
   1   3  -3 234.477 8.27640  15
  -1  -3   3 243.015 8.19286  15
   1   3  -3 248.888 9.73123   4
   1  -3  -3 242.911 9.55247   4
  -1  -3   3 253.056 8.33452   5
  -1  -3   3 261.263 8.61287  11
   1   3  -3 251.147 8.97016  11
   1  -3  -3 244.076 8.98319  10
  -1   3   3 259.600 8.67725  10
   1  -3  -3 218.595 9.32472   2
  -1   3   3 244.563 9.29904   2
  -1  -3   3 255.223 9.47219   2
   1   3  -3 243.777 9.67853   2
   1  -3  -2 32.2105 2.46452   7
   1   3  -2 38.1200 3.12696   7
   1   3  -2 32.6780 2.49163   9
  -1  -3   2 36.2112 2.73111   7
   1   3  -2 30.0182 2.44721  14
   1   3  -2 32.8453 1.87543  15
  -1  -3   2 35.5193 2.43321  14
   1  -3  -2 35.8641 2.76134  15
  -1   3   2 35.6391 2.82756  15
  -1  -3   2 36.0595 2.21292   5
  -1   3   2 31.9571 2.10587   5
   1   3  -2 33.0230 2.17303   5
   1   3  -2 33.6446 2.38879  13
  -1   3   2 40.1911 2.73003  10
  -1  -3   2 32.9082 2.38152  11
   1  -3  -2 37.6028 2.80840  10
   1   3  -2 36.3574 2.63217  11
   1  -3  -2 31.3699 2.71202   2
   1   3  -2 40.6742 2.96119   2
   1   3  -1 451.893 13.2115   3
  -1  -3   1 466.358 13.1998   3
   1  -3  -1 446.254 13.1816   3
  -1   3   1 435.405 13.1598   3
   1  -3  -1 438.223 13.1759   1
   1   3  -1 457.460 13.2840   1
   1   3  -1 454.399 16.3868  18
  -1  -3   1 486.086 16.4631  18
   1   3  -1 464.823 13.6470  14
   1   3  -1 469.005 14.3298   6
   1  -3  -1 438.281 13.6249   5
  -1  -3   1 460.393 13.6921  14
   1   3  -1 459.985 13.8201  13
  -1  -3   1 421.690 13.6876  13
   1   3  -1 460.630 13.6087  10
  -1   3   1 461.099 14.6586   9
   1  -3  -1 452.683 14.7032   9
  -1  -3   1 475.609 14.0305   9
  -1   3   0 198.163 6.82934   3
  -1  -3   0 203.337 6.88391   3
   1   3   0 205.543 7.07606   1
   1  -3   0 207.168 7.07200   1
  -1   3   0 201.112 6.82868   1
  -1  -3   0 211.947 6.91119   1
  -1  -3   0 215.560 7.61349  17
  -1  -3   0 211.049 9.29636  18
   1   3   0 214.285 7.54993  17
   1  -3   0 201.780 7.87853  18
   1  -3   0 203.165 6.97402   3
   1   3   0 204.100 7.02948   3
   1   3   0 202.407 7.36490   6
  -1  -3   0 212.678 7.67562   6
   1   3   0 210.654 6.63251  14
   1   3   0 202.510 7.00389  10
   1  -3   0 203.081 8.63211  11
  -1  -3   0 216.352 7.32415  10
  -1   3   0 213.554 8.59858  11
  -1   3   0 205.021 7.45344   8
  -1   3   0 219.989 8.34769   9
   1  -3   0 203.304 7.42848   8
  -1  -3  -1 62.8486 3.35049  17
  -1   3  -1 49.9539 3.88682  18
   1   3   1 57.9361 3.09901  17
   1   3   1 55.6958 3.94238  15
  -1  -3  -1 56.4006 3.33612   6
  -1   3  -1 54.3687 4.34682  11
   1  -3   1 53.3863 4.15859  11
  -1  -3  -1 61.1984 3.22256  10
   1  -3   1 48.9984 3.25171   8
  -1  -3  -2 674.400 19.6761  17
   1   3   2 656.906 20.8795  15
   1  -3   2 616.913 21.7710   2
   1   3   2 692.654 22.0089   2
   1   3   2 665.466 19.5694  12
  -1   3  -2 646.773 21.5298  11
   1  -3   2 649.922 21.3130  11
   1  -3   2 672.117 20.3340   8
   1  -3   3 5029.91 139.082  11
  -1  -3  -3 5328.04 137.566  12
   1   3   3 5160.17 136.966  12
   1   3   3 5043.61 140.489   2
   1  -3   3 5112.01 140.699   2
  -1   3  -3 5108.78 139.485  11
   1   3   3 5070.66 139.027  15
   1  -3   3 4922.94 138.391  15
  -1  -3  -3 4927.06 139.615  15
   1  -3   4 636.812 24.0900   2
   1   3   4 640.690 23.9897   2
  -1   3  -4 684.124 19.6534  16
   1   3   4 681.147 22.6947  15
   1  -3   4 642.467 21.8918  15
  -1  -3  -4 661.763 23.3179  15
   1   3   4 664.108 20.0740  12
  -1  -3  -4 650.049 20.5349  12
   1  -3   4 683.513 22.2318  11
  -1   3  -4 636.144 22.3451  11
   1  -3   4 683.021 24.8183   7
   1   3   4 687.138 24.0900   7
   1  -3   5 894.131 31.0693   2
   1   3   5 849.090 30.5576   2
  -1   3  -5 881.998 25.4115  16
   1   3   5 905.237 28.8915  15
   1  -3   5 847.696 27.9041  15
  -1  -3  -5 859.737 30.0184  15
   1  -3   5 887.395 30.1056   4
   1   3   5 830.477 29.6459   4
   1  -3   5 892.317 28.3320  11
  -1  -3  -5 854.663 26.2794  12
  -1   3  -5 862.478 28.6497  11
   1  -3   5 850.591 31.1375   7
   1   3   5 866.105 30.3866   7
   1   3   6 115.404 10.1369   7
   1  -3   6 86.8079 9.75927   7
   1   3   6 125.578 8.60367  15
   1  -3   6 109.974 7.69253  15
  -1  -3  -6 133.806 9.73011  15
   1  -3   6 128.943 10.0154   4
   1   3   6 109.001 9.41059   4
  -1  -3  -6 104.428 5.79135  12
  -1   3  -6 94.5167 7.23789  11
   1   3   6 133.076 10.1781   2
   1  -3   6 131.478 10.4469   2
  -1  -3  -7 18.1570 6.31015  15
   1   3   7 20.5169 5.52838  15
   1  -3   7 18.6692 5.20537  15
   1   3   7 17.9333 7.48421   7
   1  -3   7 27.4484 7.08885   4
   1  -3   7 16.1523 7.61823   7
   1   3   7 19.6810 6.83078   4
  -1  -3  -7 12.3382 2.37145  12
   1  -3   7 23.6353 3.99059  14
  -1   3  -7 20.5607 4.31280  11
   1   3   7 23.4612 6.78668   2
   1  -3   7 11.6564 6.64863   2
   1  -3   8 389.122 21.0338   7
   1   3   8 441.024 21.1001   7
   1  -3   8 426.536 17.6062  15
   1  -3   8 388.868 16.1692  14
   1   3   8 399.054 20.2775   2
   1  -3   8 406.514 20.7320   2
   1  -3   9 35.5800 8.80531   7
   1   3   9 20.7224 7.59511   7
   1   3   9 41.2358 8.70393   2
   1  -3   9 35.9455 8.13940   2
   1   3  10 133.157 12.4528   7
   1  -3  10 85.6146 11.4576   7
   1  -3  10 111.776 12.2820   2
   1   3  10 113.476 12.1841   2
   1  -3  11 22.5778 8.42305   7
   1   3  11 17.8773 7.67881   7
   1   3  11 2.98953 7.79026   2
   1  -3  11 11.1125 8.24339   2
   1   3  12 59.1674 10.5369   7
   1  -3  12 53.0891 10.8116   2
   1   3  12 59.6400 10.8167   2
  -1   4  12 213.137 14.8509   7
  -1  -4  12 221.791 15.6534   7
   1  -4 -12 231.672 16.7356  15
  -1   4  12 240.370 16.1598   2
  -1  -4  12 211.920 15.7694   2
  -1   4  11 74.9430 9.50062   2
  -1  -4  11 59.0976 9.23624   2
  -1  -4  11 70.3913 9.60240   7
  -1   4  11 81.5059 9.40813   7
   1  -4 -11 54.0808 9.44775  15
  -1   4  10 143.225 11.2533   7
  -1  -4  10 170.045 12.9249   7
   1  -4 -10 180.514 9.93459  10
  -1   4  10 155.047 11.9883   2
  -1  -4  10 162.993 12.4449   2
  -1  -4  10 184.537 9.81250  14
   1  -4 -10 199.326 13.7763  15
  -1   4   9 287.746 16.3869   2
  -1  -4   9 343.562 17.4081   2
  -1   4   9 333.111 13.8007  16
  -1  -4   9 318.028 13.8533  14
   1   4  -9 323.893 15.6556  15
   1  -4  -9 369.864 17.8771  15
   1  -4  -9 347.126 14.3635  10
  -1   4   9 317.574 16.0701   7
  -1  -4   9 329.271 17.5209   7
   1  -4  -8 26.2097 9.08308   2
   1   4  -8 13.8442 8.67334   2
  -1  -4   8 10.7601 5.65090   2
  -1   4   8 19.0785 5.83577   2
   1   4  -8 20.4958 3.08947  16
  -1   4   8 27.5875 5.34770  15
   1  -4  -8 21.9468 6.36940  15
   1   4  -8 32.4970 5.58266  15
  -1   4   8 18.6000 5.62167   4
  -1  -4   8 11.6742 5.57841   4
   1   4  -8 31.8092 9.82699   7
  -1  -4   8 14.4010 3.22932  14
   1   4  -8 23.0315 4.16172  11
  -1   4   8 17.0522 5.28914   7
   1  -4  -8 25.0109 3.80338  10
  -1  -4   8 27.5204 6.12850   7
  -1  -4   7 332.508 15.8605   2
   1  -4  -7 361.562 17.5108   2
  -1   4   7 331.379 15.6028   2
   1   4  -7 325.728 17.2792   2
  -1  -4   7 344.750 13.4459  15
  -1   4   7 355.829 14.8449  15
   1   4  -7 340.872 14.4624  15
  -1  -4   7 344.579 13.8551  14
   1  -4  -7 325.028 15.8646  15
   1   4  -7 366.735 13.1023  16
  -1  -4   7 340.252 15.2071   4
  -1   4   7 339.428 15.0984   4
   1  -4  -7 333.302 13.4530  10
   1   4  -7 339.567 14.0669  11
   1   4  -7 335.763 17.5075   7
  -1   4   7 311.902 14.7462   7
  -1  -4   7 323.296 15.9134   7
   1  -4  -7 340.630 16.7769   7
  -1  -4   7 361.966 12.8225   8
  -1   4   6 339.336 14.8619   2
  -1  -4   6 325.268 14.8598   2
   1   4  -6 337.938 15.8515   2
   1  -4  -6 341.517 15.6852   2
   1   4  -6 348.509 12.6306  16
  -1   4   6 347.396 14.1649  15
   1  -4  -6 342.943 14.9838  15
   1   4  -6 344.573 13.5165  15
  -1  -4   6 340.035 12.7313  15
  -1  -4   6 353.223 13.4626  14
   1  -4  -6 346.886 11.3414   6
  -1  -4   6 325.006 14.2937   4
   1  -4  -6 337.101 15.6635   4
   1   4  -6 333.086 15.8781   4
  -1   4   6 333.144 14.1536   4
   1   4  -6 351.099 13.6328  11
   1  -4  -6 346.426 13.1497  10
   1  -4  -6 355.406 15.7476   7
  -1   4   6 351.494 14.3159   7
  -1  -4   6 337.699 15.2379   7
   1   4  -6 349.788 16.3992   7
  -1  -4   6 341.011 12.2938   8
   1  -4  -5 265.197 12.2609   2
  -1  -4   5 261.915 11.7198   2
  -1   4   5 255.089 11.5000   2
   1   4  -5 262.266 12.1632   2
   1   4  -5 259.757 9.90659  16
  -1  -4   5 262.304 9.74620  15
   1  -4  -5 254.292 7.99062  14
  -1   4   5 275.534 11.1954  15
   1  -4  -5 249.698 11.5568  15
  -1  -4   5 263.675 10.5914  14
   1   4  -5 242.757 10.0826  15
   1  -4  -5 255.255 8.91714   6
   1   4  -5 247.826 12.0313   4
   1  -4  -5 244.444 11.9731   4
  -1  -4   5 265.389 11.3151   4
  -1   4   5 275.530 11.2877   4
  -1  -4   5 267.507 10.1491  11
  -1   4   5 261.925 8.28499  12
   1   4  -5 260.027 10.6777  11
   1  -4  -5 262.428 10.4168  10
   1  -4  -5 281.309 12.1302   7
  -1   4   5 267.251 10.9976   7
  -1  -4   5 265.765 11.9672   7
   1   4  -5 241.891 12.3589   7
   1  -4  -4 480.405 16.7919   2
  -1   4   4 469.623 16.2053   2
  -1  -4   4 491.311 16.5735   2
   1   4  -4 461.888 16.8170   2
   1   4  -4 473.711 15.3016  16
  -1   4   4 476.966 16.2785  15
   1   4  -4 455.951 14.8537  15
   1   4  -4 504.091 16.2211  14
   1  -4  -4 469.290 16.6078  15
  -1  -4   4 443.083 15.7463  14
  -1  -4   4 456.853 14.5669  15
   1   4  -4 469.012 16.8865   4
  -1  -4   4 447.993 14.8290   5
   1  -4  -4 433.592 16.5105   4
  -1   4   4 454.361 13.7287  12
  -1  -4   4 474.974 15.3367  11
   1  -4  -4 453.709 15.6983  10
   1   4  -4 475.835 16.0172  11
  -1   4   4 457.306 15.5358   7
  -1  -4   4 460.461 16.6752   7
   1   4  -4 490.279 15.1332   8
   1   4  -4 484.543 17.4367   7
   1  -4  -4 459.373 16.2349   7
  -1  -4   3 1330.94 37.8040   7
  -1   4   3 1269.26 36.4942   7
   1   4  -3 1271.10 37.9208   7
   1   4  -3 1297.76 36.6742   8
   1   4  -3 1284.00 37.2445   9
   1  -4  -3 1287.12 36.8423   7
  -1  -4   3 1378.46 37.4508  14
   1  -4  -3 1274.80 37.7270  15
   1   4  -3 1248.49 35.6766  15
   1   4  -3 1291.48 37.4483  14
  -1  -4   3 1277.28 35.5613  15
  -1   4   3 1338.96 37.5079  15
   1  -4  -3 1285.00 37.4028   4
  -1  -4   3 1306.04 36.4876   5
   1   4  -3 1307.83 37.6129   4
  -1   4   3 1274.77 35.7674   6
   1   4  -3 1307.82 36.8877  13
   1   4  -3 1341.75 37.5808  11
  -1   4   3 1319.19 36.9491  10
   1  -4  -3 1248.62 37.4438  10
  -1  -4   3 1291.13 36.9701  11
  -1   4   3 1266.88 37.0870   2
  -1  -4   3 1330.71 37.3851   2
   1   4  -3 1252.14 37.4147   2
   1  -4  -3 1217.44 37.2471   2
   1  -4  -2 1930.78 52.5120   3
   1  -4  -2 1859.91 53.0296   2
   1   4  -2 1920.61 53.1291   2
   1   4  -2 1937.29 52.5265   3
   1   4  -2 1743.47 56.5775  18
  -1  -4   2 1935.04 53.6287  14
   1  -4  -2 1873.41 53.5978  15
   1   4  -2 1926.09 51.5785  15
   1   4  -2 1984.91 53.6195  14
  -1   4   2 1948.04 53.5651  15
   1   4  -2 1931.34 53.1367   4
   1  -4  -2 1891.07 53.0092   4
   1   4  -2 1900.64 53.1192   5
  -1   4   2 1999.28 53.2045   5
   1   4  -2 1976.53 53.2343  13
   1   4  -2 1955.65 53.7088  11
  -1   4   2 1930.86 53.7584  10
  -1  -4   2 1956.90 53.7847  11
  -1  -4   2 1924.53 53.4616   7
   1  -4  -2 1899.22 52.4499   7
   1   4  -2 1906.33 53.4927   7
   1   4  -2 1918.71 53.5565   9
  -1  -4   1 19.3598 1.37464   3
  -1   4   1 16.9780 1.36061   3
   1   4  -1 21.3952 1.53593   3
   1  -4  -1 22.8794 1.56207   3
   1   4  -1 20.3010 1.51821   1
   1  -4  -1 24.1776 1.56776   1
  -1  -4   1 16.6454 3.81410  18
   1   4  -1 20.7019 3.84069  18
   1   4  -1 24.4440 2.16488  14
  -1  -4   1 22.8489 1.90592  14
   1  -4  -1 22.9355 2.16167  15
  -1   4   1 16.9369 1.88986   5
   1  -4  -1 23.4536 2.10151   5
   1   4  -1 25.1264 2.57069   6
  -1  -4   1 19.8050 1.83832  13
   1   4  -1 23.3462 2.18701  10
   1  -4  -1 22.5665 2.57195   9
  -1  -4   1 23.3244 2.34873   9
   1   4  -1 24.3713 2.09807   7
  -1   4   0 105.366 4.16742   3
  -1  -4   0 114.734 4.28116   3
   1   4   0 116.899 4.61248   1
   1  -4   0 108.727 4.51446   1
  -1   4   0 110.599 4.23589   1
  -1  -4   0 115.189 4.30540   1
   1   4   0 112.562 5.15479  17
  -1  -4   0 117.876 7.16990  18
   1  -4   0 111.681 6.00652  18
   1   4   0 118.587 4.70603  15
   1   4   0 125.724 4.52916  14
   1   4   0 111.758 5.24900   6
  -1  -4   0 109.677 5.41380   6
   1   4   0 123.219 4.65777   3
   1  -4   0 109.462 5.09566   5
   1  -4   0 110.751 4.47047   3
  -1  -4   0 114.684 4.40035  14
  -1  -4   0 112.139 5.19426  10
   1  -4   0 93.1780 5.96347  11
   1   4   0 111.057 4.88730  10
  -1   4   0 115.804 5.27295   8
  -1   4   0 111.574 5.92919   9
  -1   4  -1 1511.23 42.4565   1
   1   4   1 1532.89 42.3707  17
  -1   4  -1 1482.78 44.0132  18
  -1  -4  -1 1576.34 42.6523  17
   1   4   1 1468.01 42.5914  15
   1   4   1 1526.01 41.1590  14
  -1  -4  -1 1496.40 43.0394   6
  -1   4  -1 1481.72 42.3925   3
  -1  -4  -1 1460.23 42.7729  10
  -1   4  -1 1578.86 44.9237  11
   1  -4   1 1522.41 44.7943  11
   1  -4   1 1523.38 42.9866   8
  -1   4  -1 1544.46 43.0795   8
   1   4   2 580.339 19.6038   2
   1  -4   2 593.268 19.9099   2
  -1  -4  -2 611.734 17.8143  17
   1   4   2 598.260 18.7955  15
  -1  -4  -2 593.933 19.3164  15
  -1  -4  -2 606.411 18.3784   6
   1   4   2 548.324 16.0447  14
   1   4   2 603.102 17.8041  12
   1  -4   2 569.608 19.8198  11
  -1  -4  -2 598.889 18.4004  10
  -1   4  -2 572.112 20.0514  11
   1  -4   2 565.114 18.4335   8
   1  -4   3 2047.90 61.1861   2
   1   4   3 2105.16 61.0718   2
  -1  -4  -3 2114.90 60.7606  15
   1   4   3 2100.20 59.8543  15
  -1  -4  -3 2164.11 58.1468  17
   1   4   3 2106.73 58.0178  12
   1  -4   3 1967.48 60.1899  11
  -1  -4  -3 2201.53 59.2888  10
  -1   4  -3 2033.69 60.7812  11
   1  -4   3 2048.41 59.1191   8
   1  -4   3 2081.98 62.0388   7
   1  -4   4 276.992 13.9331   7
   1   4   4 287.639 13.1922   7
   1  -4   4 293.888 11.2318   8
   1   4   4 282.525 11.9254  15
   1  -4   4 275.849 11.3256  15
  -1  -4  -4 287.795 12.9337  15
   1  -4   4 278.375 11.8675  11
   1   4   4 266.317 9.74733  12
  -1   4  -4 280.212 12.3359  11
   1   4   4 258.985 13.1798   2
   1  -4   4 262.568 13.1970   2
   1   4   5 717.316 26.3923   2
   1  -4   5 663.665 26.3750   2
  -1   4  -5 771.117 21.7776  16
   1  -4   5 736.750 23.8344  15
  -1  -4  -5 707.235 26.0146  15
   1   4   5 772.486 25.0823  15
   1   4   5 656.877 19.9215  14
   1  -4   5 744.550 26.0592   4
   1   4   5 756.692 25.8051   4
   1   4   5 732.186 21.8087  12
   1  -4   5 706.748 24.2654  11
  -1   4  -5 736.132 25.1044  11
   1   4   5 707.892 26.1111   7
   1  -4   5 716.048 27.1517   7
   1  -4   5 778.526 23.7560   8
   1  -4   6 49.3072 4.68039   8
  -1  -4  -6 42.6525 6.68703  15
   1  -4   6 36.5916 5.44801  15
   1   4   6 45.7516 6.17138  15
   1  -4   6 48.5990 7.41067   4
   1   4   6 44.2154 6.99770   4
   1  -4   6 34.1203 7.67391   7
   1   4   6 29.0236 7.26870   7
  -1  -4  -6 41.6226 3.83223  12
  -1   4  -6 38.0542 5.14478  11
   1   4   6 52.3456 7.39603   2
   1  -4   6 47.9347 7.46483   2
   1  -4   7 107.029 7.05146   8
   1   4   7 110.033 8.85542  15
   1  -4   7 102.362 7.35223  14
   1  -4   7 121.162 8.38951  15
  -1  -4  -7 128.451 10.8131  15
   1   4   7 92.9687 9.93484   7
   1   4   7 121.161 10.0346   4
   1  -4   7 119.792 10.7035   4
   1  -4   7 103.252 11.3621   7
  -1  -4  -7 102.591 6.19336  12
  -1   4  -7 113.882 8.58436  11
   1  -4   7 110.935 10.6046   2
   1   4   7 123.151 10.7719   2
   1  -4   8 57.0879 9.67742   7
   1   4   8 65.1013 9.22644   7
   1  -4   8 75.3183 9.78575   2
   1   4   8 61.2229 9.19968   2
   1  -4   8 79.3990 6.59032  14
   1   4   9 99.2654 10.8795   2
   1  -4   9 96.1873 11.0896   2
   1   4   9 79.6999 10.2528   7
   1  -4   9 81.7793 10.8640   7
   1  -4   9 95.3509 7.47323  14
   1   4  10 77.5999 9.89133   7
   1  -4  10 79.2680 10.8048   7
   1   4  10 69.0846 10.3521   2
   1  -4  10 64.0884 10.4185   2
   1   4  11 215.221 15.9660   2
   1   4  11 211.435 15.1750   7
   1  -4  11 182.955 15.4149   7
   1   4  12 1.03497 8.13444   2
  -1  -5  12 33.2312 8.28163   7
  -1  -5  12 39.8522 8.60954   2
  -1   5  12 33.0309 7.91259   2
   1  -5 -12 40.4585 9.56680  15
  -1  -5  11-2.65943 6.32013   7
  -1   5  11 0.82742 6.16539   2
  -1  -5  11-4.30945 6.46725   2
   1  -5 -11-0.90484 6.97554  15
   1  -5 -10 229.888 15.0127  15
  -1  -5  10 222.546 11.5317  14
  -1   5  10 224.044 13.8108   7
  -1  -5  10 226.760 14.7301   7
   1  -5 -10 216.506 11.7120  10
  -1  -5  10 231.953 14.6974   2
  -1   5  10 250.287 14.7377   2
  -1   5   9 18.0244 5.20558   7
  -1  -5   9 7.40247 5.38435   7
   1  -5  -9 28.4871 6.88668  15
  -1  -5   9 22.7445 3.82149  14
   1  -5  -9 23.5753 4.00388  10
  -1   5   9 16.4230 5.66904   2
  -1  -5   9 22.7287 6.11262   2
  -1  -5   8-6.90773 5.69028   2
  -1   5   8-3.02699 4.81818   2
   1  -5  -8 15.2564 8.99162   2
   1   5  -8 4.85526 8.65229   2
   1   5  -8 3.27322 2.10755  16
   1  -5  -8-1.29205 5.44961  15
  -1   5   8-4.06401 5.18071   4
  -1  -5   8 3.15453 5.42188   4
   1   5  -8 24.0460 10.0334   7
  -1  -5   8 0.86713 2.39459  14
   1  -5  -8 3.50466 2.89919  10
  -1  -5   8 0.66001 5.08814   7
  -1   5   8 2.64038 4.40550   7
  -1   5   7 326.620 15.3337   2
  -1  -5   7 296.285 15.0743   2
   1   5  -7 331.579 17.1336   2
   1  -5  -7 330.062 17.0590   2
   1   5  -7 357.948 12.9978  16
  -1   5   7 337.175 14.5861  15
   1  -5  -7 312.129 15.6484  15
   1   5  -7 314.618 13.8598  15
  -1  -5   7 325.782 13.7636  14
  -1  -5   7 316.605 14.7362   4
  -1   5   7 347.900 14.8782   4
   1   5  -7 318.084 14.0622  11
   1  -5  -7 330.182 13.6992  10
   1  -5  -7 380.466 17.3818   7
  -1   5   7 337.692 14.7080   7
  -1  -5   7 315.668 15.6848   7
   1   5  -7 334.529 17.6598   7
   1   5  -6 265.495 14.1886   2
   1  -5  -6 288.125 14.3620   2
  -1   5   6 305.590 13.4337   2
  -1  -5   6 263.828 13.0369   2
   1   5  -6 293.826 11.1797  16
  -1   5   6 290.493 12.5875  15
  -1  -5   6 290.272 10.9673  15
   1  -5  -6 310.134 13.8424  15
   1   5  -6 255.792 11.4612  15
  -1  -5   6 273.959 11.8421  14
   1  -5  -6 286.567 14.2689   4
   1  -5  -6 270.332 10.1521   6
   1   5  -6 282.798 14.3356   4
  -1  -5   6 281.459 12.6951   4
  -1   5   6 289.897 12.6434   4
  -1  -5   6 313.760 11.8426  11
  -1   5   6 281.514 9.24335  12
   1  -5  -6 282.764 11.9007  10
   1   5  -6 264.198 12.1075  11
   1   5  -6 291.153 14.8450   7
  -1   5   6 286.343 12.4082   7
  -1  -5   6 276.072 13.4320   7
   1  -5  -6 296.011 14.0695   7
  -1  -5   5 640.573 21.4954   2
  -1   5   5 610.569 21.1951   2
   1  -5  -5 610.491 21.8895   2
   1   5  -5 597.346 21.8832   2
   1   5  -5 648.671 19.9589  16
  -1   5   5 642.385 21.0202  15
   1  -5  -5 552.174 16.9218  14
  -1  -5   5 655.154 20.8155  14
   1   5  -5 599.806 19.4801  15
   1  -5  -5 623.918 21.8496  15
  -1  -5   5 599.345 18.8214  15
   1  -5  -5 602.577 21.9308   4
  -1  -5   5 636.827 19.5936   5
   1   5  -5 618.625 22.2165   4
  -1  -5   5 620.453 20.8446   4
  -1  -5   5 648.721 20.2033  11
  -1   5   5 626.135 17.9833  12
   1   5  -5 629.726 21.0608  11
   1  -5  -5 625.614 20.6580  10
  -1   5   5 610.200 20.2715   7
  -1  -5   5 625.743 21.8496   7
   1   5  -5 633.971 22.9002   7
   1  -5  -5 604.693 21.3052   7
   1  -5  -4 159.501 8.20165   2
  -1   5   4 154.385 7.53530   2
  -1  -5   4 159.514 7.73877   2
   1   5  -4 168.374 8.47196   2
   1  -5  -4 145.605 5.15214  17
   1  -5  -4 162.194 8.28741  15
  -1   5   4 152.330 7.59517  15
  -1  -5   4 172.751 7.76825  14
   1   5  -4 155.450 6.44677  15
  -1  -5   4 162.819 6.12003  15
  -1  -5   4 161.883 6.94024   5
   1  -5  -4 161.254 8.21149   4
   1   5  -4 149.914 8.09864   4
   1   5  -4 175.362 8.19207  11
  -1  -5   4 170.395 7.46076  11
   1  -5  -4 147.877 7.49744  10
  -1   5   4 164.194 7.07835  10
   1   5  -4 154.101 6.96348   8
  -1   5   4 155.799 6.91303   7
   1  -5  -4 161.603 7.86268   7
  -1  -5   4 160.401 8.15124   7
   1   5  -4 150.427 8.70890   7
   1  -5  -3 34.6538 3.50503   2
   1   5  -3 32.3864 3.29998   2
  -1  -5   3 28.9243 2.90607   2
   1   5  -3 31.5970 4.93036  18
   1  -5  -3 29.6137 3.25764  15
   1   5  -3 28.7042 3.13769  14
  -1  -5   3 32.4359 2.95271  14
   1   5  -3 27.2018 1.96683  15
  -1   5   3 34.7279 3.19965  15
  -1   5   3 37.1494 2.60195   6
  -1   5   3 34.9402 2.69278   5
  -1  -5   3 34.5484 2.73928   5
   1  -5  -3 30.3185 3.15606   4
   1   5  -3 29.7719 3.11947   4
   1   5  -3 26.9607 2.51761  13
   1   5  -3 31.1023 3.29069  11
  -1  -5   3 29.1251 2.90633  11
  -1   5   3 27.6846 2.79962  10
   1  -5  -3 29.8017 3.08877  10
  -1  -5   3 26.3577 3.06412   7
   1  -5  -3 30.7120 2.98935   7
   1   5  -3 30.2332 3.87950   7
   1   5  -3 23.8528 2.44086   8
   1   5  -3 31.8998 3.08010   9
   1   5  -2 55.1027 3.46432   2
   1  -5  -2 60.4510 2.86174   3
   1   5  -2 60.9141 2.86958   3
   1  -5  -2 52.9002 3.24819   2
  -1   5   2 53.9485 2.26448  17
   1   5  -2 59.3974 5.88311  18
   1   5  -2 58.7904 3.87106  14
  -1   5   2 53.5763 3.59108  15
   1  -5  -2 57.2645 3.75258  15
  -1  -5   2 64.0235 3.76029  14
   1   5  -2 59.1453 3.39627   4
  -1   5   2 58.2798 3.51457   5
   1   5  -2 54.3957 3.48676   5
   1  -5  -2 57.3378 3.30658   4
   1   5  -2 58.2834 3.41499  13
  -1   5   2 50.0521 3.77573  10
  -1  -5   2 55.7499 4.04767  11
   1   5  -2 57.0788 3.89928   9
   1  -5  -2 52.6066 2.78886   7
   1   5  -2 55.8777 3.68801   7
  -1  -5   2 55.4627 3.95780   9
   1   5  -1 8.56820 1.07776   3
   1  -5  -1 8.05550 1.05569   3
   1  -5  -1 11.3898 1.15470   1
   1   5  -1 9.19625 1.11295   1
   1   5  -1 12.4127 3.55141  18
  -1  -5   1 7.32793 3.43817  18
   1  -5  -1 9.74247 1.61280  15
   1   5  -1 10.2714 1.68597   5
   1   5  -1 6.15381 1.82253   6
   1  -5  -1 8.72215 1.64678   5
  -1   5   1 9.72661 1.54803   5
  -1  -5   1 6.91670 1.36872  13
   1   5  -1 9.49498 1.68099  14
  -1  -5   1 10.0464 1.48538  14
   1   5  -1 8.33420 1.68949  10
   1  -5  -1 10.0703 2.17089   9
  -1  -5   1 4.21594 1.62771   9
   1   5  -1 6.39399 1.44430   7
  -1  -5   0 378.447 11.3784   3
  -1   5   0 362.743 11.2708   3
  -1  -5   0 379.902 11.3871   1
  -1   5   0 370.717 11.2937   1
   1   5   0 397.209 11.8580  15
  -1  -5   0 386.134 11.9949  14
   1   5   0 402.192 12.1621  14
   1  -5   0 379.968 14.2877  18
   1   5   0 368.996 12.8534  17
  -1  -5   0 363.992 15.4421  18
   1   5   0 390.188 13.2096   6
   1  -5   0 374.501 12.8612   5
   1   5   0 400.459 12.8427  10
   1  -5   0 386.464 14.8336  11
  -1  -5   0 401.618 13.3515  10
  -1   5   0 398.463 14.1503   9
  -1   5   0 385.285 13.1844   8
   1  -5   0 379.883 14.2922   9
  -1   5  -1 907.373 26.6848   1
  -1  -5  -1 922.847 26.7838   1
   1   5   1 931.064 25.9950  14
   1   5   1 904.415 27.0986  15
   1  -5   1 972.772 29.1798  18
  -1   5  -1 919.470 29.3172  18
   1   5   1 910.908 27.1102  17
  -1  -5  -1 927.065 27.3669  17
  -1  -5  -1 905.567 26.7511   3
   1   5   1 947.605 27.5532   6
  -1  -5  -1 903.651 28.0495   6
  -1   5  -1 919.026 26.6804   3
  -1  -5  -1 925.936 27.8807  10
   1  -5   1 949.012 29.9622  11
  -1   5  -1 955.739 29.8291  11
   1   5   1 937.867 27.3132  10
  -1   5  -1 929.786 27.9475   8
  -1   5  -1 948.007 29.1595   9
   1   5   2 538.075 18.5870   2
   1  -5   2 532.456 18.9076   2
  -1   5  -2 537.140 19.6387  18
  -1  -5  -2 580.623 17.4280  17
   1   5   2 549.427 15.5874  14
  -1  -5  -2 573.922 18.7674  15
   1   5   2 544.081 18.0134  15
  -1  -5  -2 569.124 18.1670   6
   1  -5   2 537.848 19.7002  11
  -1  -5  -2 550.604 18.1187  10
  -1   5  -2 551.975 19.9803  11
  -1   5  -2 507.936 17.9587   8
   1  -5   2 559.030 18.1452   8
   1  -5   3 1930.92 57.9322   2
   1   5   3 1930.55 57.4175   2
  -1  -5  -3 2048.77 55.0259  17
   1   5   3 1962.40 56.5334  15
  -1  -5  -3 1986.76 57.4970  15
  -1  -5  -3 1984.09 55.8665   6
   1   5   3 1931.13 54.9160  12
   1  -5   3 1946.26 57.8213  11
  -1   5  -3 2075.18 58.6201  11
  -1  -5  -3 1850.83 55.9904  10
   1  -5   3 2025.25 56.2790   8
   1  -5   3 1937.85 58.5987   7
   1  -5   4 761.987 27.3719   2
   1   5   4 753.525 26.9227   2
  -1  -5  -4 783.702 23.7238  17
   1  -5   4 751.402 24.6576  15
  -1  -5  -4 799.842 27.0573  15
   1   5   4 793.464 25.8085  15
   1  -5   4 818.494 26.9863   4
   1   5   4 775.107 26.2924   4
   1   5   4 791.799 23.6041  12
  -1  -5  -4 780.143 25.1952  10
   1  -5   4 776.479 26.2664  11
  -1   5  -4 784.037 26.9411  11
   1   5   4 783.383 26.6472   7
   1  -5   4 769.681 28.0223   7
   1  -5   4 790.241 25.1048   8
   1  -5   5 284.794 15.1396   2
   1   5   5 275.231 14.3943   2
  -1   5  -5 296.623 10.7724  16
   1  -5   5 287.160 12.3073  15
  -1  -5  -5 307.867 14.6781  15
   1   5   5 318.675 13.6066  15
   1  -5   5 307.392 14.4445   4
   1   5   5 313.989 14.2139   4
   1  -5   5 309.575 13.4009  11
   1   5   5 298.289 10.8239  12
  -1  -5  -5 314.832 12.6102  10
  -1   5  -5 300.601 13.9621  11
   1   5   5 300.207 14.2842   7
   1  -5   5 299.808 12.3753   8
   1  -5   5 308.888 15.7209   7
   1   5   6 315.208 15.0669   7
   1  -5   6 244.169 11.1215   8
   1  -5   6 210.978 14.1677   7
   1   5   6 253.495 12.5971  15
   1  -5   6 234.870 11.4901  15
  -1  -5  -6 229.796 13.6210  15
   1  -5   6 239.910 13.4429   4
   1   5   6 293.704 14.3001   4
   1  -5   6 243.569 11.8201  11
   1   5   6 233.200 9.34257  12
  -1   5  -6 218.680 12.2670  11
   1  -5   6 244.751 14.2280   2
   1   5   6 302.738 14.8393   2
   1  -5   7 5.18728 3.06189   8
  -1  -5  -7 7.01740 6.45165  15
   1  -5   7 8.59909 3.94505  14
   1   5   7 5.77574 6.23730   4
   1   5   7 2.57494 6.66558   7
   1  -5   7 10.1573 7.97028   7
   1  -5   7 7.25866 6.53199   4
  -1   5  -7 9.84634 4.43975  11
   1   5   7 16.4446 6.66767   2
   1  -5   7 5.04095 6.49696   2
   1  -5   8-2.02183 3.09687  14
   1   5   8 9.98707 7.05272   7
   1  -5   8-3.42828 7.69175   7
   1   5   8-5.32445 6.48650   2
   1  -5   8-0.79667 6.26163   2
   1  -5   9-0.52623 3.05140  14
   1   5   9 2.50311 7.03825   2
   1  -5   9 6.94844 7.16377   2
   1   5   9-6.99169 7.92228   7
   1  -5   9-4.62014 7.87974   7
  -1  -5  -9 1.07019 2.63450  10
   1   5  10 21.6956 7.99956   2
   1  -5  10 29.1730 8.65035   2
  -1  -5 -10 37.2919 5.16996  10
   1  -5  10 34.4754 8.79539   7
   1  -5  11 2.00406 7.78154   2
  -1  -5 -11 12.2052 4.15687  10
   1  -5  11 8.30699 7.79753   7
  -1  -5 -12 43.8306 6.14203  10
  -1  -6  12 138.272 13.1047   7
  -1  -6  12 130.486 12.5908   2
  -1   6  12 155.094 13.0416   2
   1  -6 -12 158.688 14.4438  15
  -1  -6  11 151.998 12.7287   7
  -1  -6  11 142.237 12.1517   2
  -1   6  11 129.957 11.8637   2
  -1  -6  11 142.631 9.34409  14
   1  -6 -11 156.031 13.6502  15
  -1  -6  10 333.942 18.1714   7
   1  -6 -10 319.031 15.1604  10
  -1   6  10 279.968 16.5793   2
  -1  -6  10 317.433 17.4756   2
   1  -6 -10 316.451 18.0329  15
  -1  -6  10 342.161 15.0850  14
  -1  -6   9 52.0286 7.51753   7
  -1  -6   9 52.3383 5.42538  14
   1  -6  -9 50.2021 7.88889  15
   1  -6  -9 45.9263 5.49520  10
  -1  -6   9 49.9063 7.30899   2
  -1   6   9 42.1778 6.84571   2
   1   6  -8 2.76847 8.52584   2
   1  -6  -8 2.09001 8.64798   2
  -1   6   8 5.92293 4.74523   2
  -1  -6   8 3.10301 4.81799   2
   1   6  -8 7.88778 2.46849  16
   1  -6  -8 7.31756 5.88447  15
  -1   6   8-3.48915 5.41839   4
  -1  -6   8 3.63650 5.28011   4
  -1  -6   8 7.48389 3.20752  14
   1  -6  -8 10.2315 3.42306  10
  -1  -6   8 1.98848 4.97576   7
  -1   6   8 6.04972 4.50499   7
  -1  -6   7 27.2933 5.70768   7
  -1   6   7 20.1560 4.56384   7
  -1   6   7 24.1207 4.81519  15
   1  -6  -7 18.7739 5.69525  15
   1   6  -7 23.5345 3.01791  16
   1   6  -7 35.3659 8.89346   7
  -1  -6   7 19.7411 5.20642   4
  -1  -6   7 25.8979 3.88864  14
   1   6  -7 21.1868 4.40957  11
   1  -6  -7 28.0849 4.05137  10
  -1  -6   7 26.8489 5.43077   2
   1  -6  -7 24.7741 8.25048   2
   1   6  -7 28.4115 8.50960   2
  -1   6   7 24.5756 5.27961   2
  -1   6   6 65.9997 6.27484   2
  -1  -6   6 66.9746 6.47553   2
   1  -6  -6 74.3246 8.51382   2
   1   6  -6 72.3458 8.59008   2
   1   6  -6 69.2761 4.81947  16
  -1   6   6 73.9787 6.24928  15
   1  -6  -6 71.9684 6.92615  15
  -1  -6   6 64.9491 5.42460  14
   1   6  -6 76.0464 5.65793  15
  -1  -6   6 67.5139 4.84066   5
  -1  -6   6 54.8816 5.82234   4
   1   6  -6 63.7671 8.50758   7
  -1  -6   6 73.8170 5.32789  11
   1   6  -6 63.1624 5.89422  11
   1  -6  -6 58.8236 5.29682  10
  -1   6   6 58.6625 5.39777   7
  -1  -6   6 75.6385 7.00510   7
   1  -6  -6 81.4005 8.27968   7
  -1  -6   5 601.504 22.2192   7
   1   6  -5 633.759 20.7217   8
   1   6  -5 626.176 23.3948   7
  -1   6   5 617.110 20.5764   7
   1  -6  -5 640.459 22.1122   7
  -1   6   5 655.713 21.6888  15
   1  -6  -5 659.942 22.7902  15
  -1  -6   5 653.481 21.6566  14
   1   6  -5 603.114 19.8046  15
  -1  -6   5 602.200 19.0787  15
   1  -6  -5 601.441 22.5033   4
   1   6  -5 623.139 22.8442   4
  -1  -6   5 641.938 20.4503   5
  -1   6   5 646.098 19.0023  12
  -1  -6   5 621.355 21.0028  11
   1   6  -5 656.848 22.3328  11
   1  -6  -5 638.939 21.8285  10
  -1   6   5 646.053 21.6728   2
  -1  -6   5 639.345 21.9090   2
   1  -6  -5 650.356 22.8299   2
   1   6  -5 614.105 22.7374   2
   1  -6  -4 169.082 8.54832   2
  -1  -6   4 165.751 7.94856   2
   1   6  -4 204.099 9.39657   2
  -1   6   4 161.094 7.61473   2
   1   6  -4 163.151 11.0566  18
  -1  -6   4 153.224 5.97352  15
  -1   6   4 159.071 7.91955  15
   1  -6  -4 162.870 8.64131  15
  -1  -6   4 171.678 8.16491  14
   1   6  -4 168.091 6.52031  15
   1  -6  -4 160.095 8.37541   4
  -1  -6   4 164.475 7.38010   5
   1   6  -4 196.143 9.21587   4
   1   6  -4 167.191 7.38640  13
   1   6  -4 171.347 8.75770  11
  -1  -6   4 172.916 8.17189  11
  -1   6   4 173.322 7.72655  10
   1  -6  -4 175.746 8.60724  10
  -1  -6   4 160.241 8.31756   7
  -1   6   4 165.317 7.03636   7
   1  -6  -4 170.542 8.22513   7
   1   6  -4 174.191 8.37870   9
   1   6  -4 161.238 7.56732   8
   1   6  -4 198.409 10.0696   7
   1  -6  -3 126.781 6.28954   2
   1   6  -3 120.226 6.27026   2
   1   6  -3 111.486 8.79601  18
  -1   6   3 120.317 6.17656  15
  -1  -6   3 117.916 6.18056  14
   1  -6  -3 119.895 6.53217  15
  -1   6   3 117.036 5.76785   5
  -1  -6   3 118.912 5.80824   5
  -1   6   3 117.260 5.61235   6
   1   6  -3 108.554 5.99764   4
   1  -6  -3 131.987 6.28113   4
   1   6  -3 119.276 5.65692  13
  -1  -6   3 113.944 6.46167  11
   1  -6  -3 106.978 6.35419  10
   1   6  -3 121.826 6.74885  11
  -1   6   3 116.302 6.11945  10
   1   6  -3 110.747 6.33036   9
  -1  -6   3 113.857 6.10384   7
   1  -6  -3 120.062 5.67084   7
   1   6  -3 106.037 6.69516   7
   1   6  -2 680.390 19.5016   3
   1  -6  -2 692.124 20.1498   2
   1   6  -2 686.891 20.2349   2
   1  -6  -2 670.102 19.4578   3
   1   6  -2 680.710 25.6187  18
  -1   6   2 640.069 19.1547  17
  -1  -6   2 690.836 24.7878  18
   1  -6  -2 681.197 21.2485  15
  -1  -6   2 667.193 21.2624  14
   1   6  -2 687.427 21.3176   5
  -1   6   2 690.324 21.2792   5
   1   6  -2 688.835 20.2625   4
   1  -6  -2 672.467 20.0902   4
  -1  -6   2 692.505 20.7147  13
   1   6  -2 713.313 20.7738  13
  -1  -6   2 696.602 22.3644  11
  -1   6   2 672.352 21.8075  10
   1  -6  -2 666.056 19.2798   7
  -1  -6   2 662.826 22.1418   9
   1   6  -2 679.688 20.8830   7
   1  -6  -2 673.300 22.8810   9
   1   6  -1 540.931 15.2824   3
   1  -6  -1 517.223 15.1858   3
   1   6  -1 525.415 15.3761   2
   1   6  -1 526.919 15.2842   1
   1  -6  -1 517.098 15.2411   1
   1   6  -1 528.342 20.7511  18
  -1  -6   1 553.550 20.7774  18
   1  -6  -1 520.535 16.5285  15
  -1  -6   1 539.148 16.8447  14
   1   6  -1 530.344 16.9771  14
   1   6  -1 526.456 17.9328   6
  -1   6   1 548.428 17.5077   5
   1  -6  -1 516.991 16.9980   5
   1   6  -1 535.776 17.3031   5
  -1  -6   1 540.091 16.5655  13
  -1  -6   1 534.689 18.0719  11
   1   6  -1 534.253 17.3478  10
   1   6  -1 537.914 15.9458   7
   1  -6  -1 521.917 18.6966   9
  -1  -6   1 522.302 18.0227   9
  -1   6   0 1100.45 30.6204   3
  -1  -6   0 1111.94 30.6939   3
  -1  -6   0 1118.53 30.7106   1
  -1   6   0 1086.84 30.6062   1
  -1  -6   0 1176.23 36.8762  18
   1  -6   0 1109.14 34.9229  18
   1   6   0 1099.26 32.9853  17
  -1  -6   0 1121.13 31.9102  14
   1   6   0 1139.05 31.3277  15
   1   6   0 1198.95 32.2375  14
   1  -6   0 1112.26 32.9648   5
   1   6   0 1131.43 33.4236   6
   1  -6   0 1102.02 35.4622  11
   1   6   0 1109.80 32.8593  10
  -1   6   0 1120.09 33.4177   8
  -1   6   0 1174.57 34.6042   9
   1  -6   0 1094.98 34.8216   9
   1  -6   1 70.2875 4.79359   2
  -1  -6  -1 81.6257 3.93288   1
  -1   6  -1 71.7210 3.72555   1
   1   6   1 78.5828 4.30471  17
   1  -6   1 63.1339 5.51045  18
  -1   6  -1 67.3195 5.55804  18
   1   6   1 74.1739 4.21193  15
   1   6   1 82.3470 3.69069  14
  -1  -6  -1 78.7732 3.85188   3
   1   6   1 79.9162 4.65283   6
   1  -6   1 68.0521 4.47074   5
  -1   6  -1 66.3617 3.55465   3
  -1  -6  -1 65.5898 4.68578   6
  -1   6  -1 61.3343 2.73864  13
  -1  -6  -1 69.4271 3.26471  14
   1   6   1 74.6548 4.39029  10
  -1   6  -1 59.9814 5.32564  11
   1  -6   1 63.6853 5.58631  11
  -1  -6  -1 71.9126 4.76555  10
  -1   6  -1 69.2010 5.33331   9
  -1   6  -1 62.5741 4.44100   8
   1  -6   2 210.062 9.62373   2
   1   6   2 203.925 9.18070   2
  -1  -6  -2 209.268 8.39162  17
   1   6   2 202.647 7.96685  17
  -1   6  -2 226.406 11.1015  18
   1   6   2 211.671 8.80163  15
   1   6   2 201.829 6.83728  14
  -1  -6  -2 213.125 9.40471  15
  -1  -6  -2 187.412 8.88827   6
  -1   6  -2 224.381 10.9285  11
  -1  -6  -2 207.198 9.15501  10
   1  -6   2 199.178 10.4433  11
  -1   6  -2 210.723 10.1978   9
   1  -6   2 214.554 10.2114   7
  -1   6  -2 211.527 9.18603   8
   1   6   3 167.294 9.02769   2
   1  -6   3 150.922 9.16692   2
  -1  -6  -3 191.216 7.52219  17
  -1   6  -3 158.089 9.92187  18
  -1  -6  -3 168.684 9.08905  15
   1   6   3 173.252 8.41523  15
  -1  -6  -3 165.848 8.01233   6
   1   6   3 170.843 7.29014  12
  -1   6  -3 166.030 9.68984  11
   1  -6   3 170.357 9.39416  11
  -1  -6  -3 168.045 8.29370  10
   1  -6   3 161.880 9.76031   7
   1  -6   3 157.956 7.93248   8
   1   6   4 9.97225 4.45187   2
   1  -6   4 16.4633 4.96621   2
  -1  -6  -4 20.0203 2.65096  17
  -1  -6  -4 20.7798 4.29454  15
   1   6   4 16.2842 3.71282  15
   1  -6   4 14.4051 3.29258  15
   1  -6   4 21.7706 5.33747   7
   1   6   4 37.5918 5.44463   7
   1   6   4 22.6447 4.94549   4
   1  -6   4 30.7088 5.09790   4
  -1  -6  -4 23.3140 3.11127   6
   1   6   4 20.0070 2.43907  12
  -1  -6  -4 24.0467 3.24693  10
   1  -6   4 14.8098 3.48714  11
  -1   6  -4 12.3752 3.76802  11
   1  -6   4 20.1322 3.14079   8
   1   6   5 140.602 9.72898   2
   1  -6   5 145.242 10.1622   2
  -1  -6  -5 136.708 6.76201  17
   1   6   5 158.231 9.34682  15
   1  -6   5 144.800 7.96383  15
  -1  -6  -5 130.045 9.50059  15
  -1  -6  -5 132.925 7.39403   6
   1   6   5 136.629 9.26267   4
   1  -6   5 157.227 10.0841   4
   1  -6   5 139.084 8.64204  11
   1   6   5 150.485 6.72261  12
  -1  -6  -5 145.069 8.16444  10
  -1   6  -5 149.409 9.73501  11
   1  -6   5 163.560 8.37785   8
   1   6   5 137.039 9.45934   7
   1  -6   5 157.596 11.0623   7
   1  -6   6 6.73044 3.11822   8
  -1  -6  -6 6.70691 2.99189  10
   1   6   6 7.47359 4.43399  15
  -1  -6  -6 5.66443 5.42827  15
   1   6   6 9.21103 6.21339   7
   1   6   6 15.2432 6.04813   4
  -1  -6  -6 9.26451 2.94590   6
   1  -6   6 7.03040 5.87986   4
   1  -6   6 2.10904 6.81288   7
   1   6   6 5.85479 2.01794  12
  -1   6  -6 7.53569 4.38417  11
   1  -6   6 9.04944 3.56224  11
   1   6   6 14.7874 6.05802   2
   1  -6   6 12.6685 6.13913   2
   1  -6   7 286.199 12.7379   8
   1  -6   7 262.231 16.7507   7
   1   6   7 256.597 14.8695   7
   1  -6   7 265.072 13.3511  14
  -1  -6  -7 285.818 16.0337  15
   1   6   7 272.358 14.6910   4
   1  -6   7 267.614 14.9990   4
   1  -6   7 284.263 13.6295  11
  -1   6  -7 285.725 14.6847  11
  -1  -6  -7 272.351 12.9348  10
   1   6   7 260.141 15.0861   2
   1  -6   7 271.928 15.6781   2
  -1  -6  -8 259.485 15.6187  15
   1  -6   8 220.801 12.1294  14
   1  -6   8 247.971 16.4089   7
  -1  -6  -8 232.834 12.1160  10
   1   6   8 235.448 14.8134   2
   1  -6   8 255.079 15.7413   2
   1  -6   9 12.3387 4.19551  14
  -1  -6  -9 13.6221 3.84053  10
   1  -6   9 12.0330 8.02824   7
   1  -6   9 12.9716 7.50174   2
   1   6   9 25.3046 7.64803   2
   1  -6  10 158.987 13.9610   7
  -1  -6 -10 156.125 10.3067  10
   1  -6  10 151.122 10.2717  14
   1   6  10 161.531 13.6333   2
   1  -6  10 141.986 13.4505   2
   1   6  11 7.55359 7.37480   2
   1  -6  11 1.98804 7.76384   2
   1  -6  11 8.32964 7.48077   7
  -1  -6 -11 3.22448 3.69756  10
  -1  -7  12 107.029 11.9260   7
  -1  -7  12 124.355 12.1919   2
   1  -7 -12 133.806 13.7103  15
  -1  -7  11 3.49314 3.37660  14
   1  -7 -11 0.94138 7.06379  15
  -1  -7  11 3.56116 6.24906   7
  -1  -7  11 0.84160 6.53073   2
  -1  -7  10 13.9304 6.32474   7
  -1  -7  10 9.49993 3.40222  14
   1  -7 -10 20.5909 7.44000  15
   1  -7 -10 14.8288 4.24371  10
  -1  -7  10 6.14442 5.69098   2
  -1   7  10 12.3439 5.71555   2
  -1  -7   9 31.9954 6.71256   7
  -1  -7   9 38.7594 5.03674  14
   1  -7  -9 38.5583 7.37408  15
   1  -7  -9 37.4023 5.27510  10
  -1   7   9 31.9958 6.07516   2
  -1  -7   9 35.1732 6.37937   2
  -1  -7   8 3.98437 4.94974   7
   1  -7  -8 5.49626 5.73293  15
  -1  -7   8 3.99922 2.69222  14
   1  -7  -8 7.48895 3.34743  10
  -1  -7   8 3.66134 4.64377   2
  -1   7   8 5.76637 4.59108   2
  -1  -7   7 4.65586 4.68878   7
   1  -7  -7 1.81801 4.96971  15
   1   7  -7 3.06723 2.17374  16
  -1   7   7-1.36320 4.32796  15
   1   7  -7 16.9960 8.69106   7
  -1  -7   7 9.29203 3.51053  14
  -1  -7   7 3.61957 2.70888  11
   1  -7  -7-3.47649 3.10578  10
  -1  -7   7 3.68529 4.46560   2
   1   7  -7-3.02484 7.77083   2
   1  -7  -7-3.03967 8.09960   2
  -1   7   7 0.49680 4.21401   2
  -1  -7   6-0.49867 4.04147   7
  -1   7   6-5.23041 3.32118   7
   1  -7  -6 0.52746 3.87435  15
   1   7  -6 3.60068 1.85347  16
  -1   7   6 0.81204 3.62606  15
  -1  -7   6 2.14410 2.34570   5
   1   7  -6 4.67223 7.19319   7
  -1  -7   6 1.28258 2.36096  14
   1   7  -6-0.98470 3.51012  11
  -1  -7   6-0.37890 2.27250  11
   1  -7  -6 0.46216 2.64855  10
  -1   7   6 1.66111 3.63530   2
  -1  -7   6-1.32855 3.56768   2
   1   7  -6 1.03253 6.43998   2
   1  -7  -6 4.62562 6.57033   2
   1  -7  -5 204.854 11.4387   2
  -1   7   5 220.018 10.1070   2
   1   7  -5 213.104 11.5947   2
  -1  -7   5 220.792 10.3543   2
   1   7  -5 221.429 14.1328  18
  -1   7   5 237.839 10.5157  15
   1  -7  -5 214.426 11.1295  15
  -1  -7   5 213.282 10.3752  14
  -1  -7   5 222.736 9.49597   5
   1   7  -5 214.592 9.30506  13
   1  -7  -5 220.658 10.7017  10
   1   7  -5 223.626 11.1862  11
  -1  -7   5 215.830 10.1167  11
  -1   7   5 200.146 8.95949   7
   1  -7  -5 223.634 11.0701   7
  -1  -7   5 218.999 10.9363   7
   1   7  -5 227.184 9.80397   8
   1   7  -5 235.516 12.6072   7
   1   7  -5 216.902 10.5158   9
  -1  -7   4 1332.26 38.9777   2
  -1   7   4 1350.78 38.5787   2
   1  -7  -4 1303.43 39.5477   2
   1   7  -4 1283.57 39.6556   2
   1   7  -4 1262.04 44.4920  18
  -1  -7   4 1307.01 39.7438  14
  -1   7   4 1354.28 39.3293  15
   1  -7  -4 1290.95 40.1732  15
  -1   7   4 1309.84 37.8176   6
   1   7  -4 1249.18 39.7371   4
  -1   7   4 1329.28 38.7457   5
   1  -7  -4 1300.12 39.6121   4
  -1  -7   4 1398.59 38.8776   5
   1   7  -4 1295.28 38.3723  13
  -1   7   4 1356.19 39.1386  10
   1  -7  -4 1271.07 40.2957  10
   1   7  -4 1306.96 40.4775  11
  -1  -7   4 1300.79 39.9234  11
   1  -7  -4 1310.28 38.6251   7
  -1  -7   4 1337.18 39.7316   7
   1   7  -4 1274.30 39.7797   9
   1   7  -4 1321.58 40.6570   7
   1   7  -4 1285.53 39.0809   8
   1  -7  -3 150.335 7.09624   2
   1   7  -3 155.379 6.02385   3
   1   7  -3 147.639 7.14847   2
   1   7  -3 153.912 10.9318  18
  -1   7   3 141.078 7.07577  15
  -1  -7   3 162.609 7.70909  14
   1  -7  -3 152.459 7.74400  15
  -1   7   3 139.947 6.83719   6
   1  -7  -3 145.739 7.02325   4
  -1   7   3 138.538 7.00000   5
  -1  -7   3 153.608 7.13869   5
   1   7  -3 154.636 7.25840   4
   1   7  -3 160.068 6.82061  13
  -1  -7   3 161.370 8.34834  11
  -1   7   3 140.693 7.31129  10
   1   7  -3 141.223 7.86400  11
  -1  -7   3 160.745 7.32863   7
   1   7  -3 147.918 7.79972   9
   1   7  -3 150.842 8.03265   7
   1  -7  -3 145.350 6.34549   7
   1  -7  -2 60.9191 2.91448   3
   1   7  -2 59.3986 2.92483   3
   1   7  -2 64.2354 3.75557   2
   1  -7  -2 57.8681 3.52989   2
   1   7  -2 56.8291 2.89841   1
  -1  -7   2 70.4856 7.01912  18
  -1   7   2 60.0291 3.11890  17
   1   7  -2 70.2197 7.34837  18
   1  -7  -2 55.8192 4.25286  15
  -1  -7   2 67.7293 4.33786  14
   1  -7  -2 55.6636 3.48902   4
  -1   7   2 74.9440 4.61565   5
   1   7  -2 60.2059 3.63537   4
   1   7  -2 72.6296 4.58861   5
  -1  -7   2 63.5166 3.84847  13
  -1   7   2 62.3496 4.69387  10
  -1  -7   2 70.4236 5.35637  11
   1  -7  -2 51.6616 4.97625   9
   1  -7  -2 53.0661 2.80460   7
  -1  -7   2 64.3517 5.00310   9
   1   7  -2 55.3707 4.26565   7
   1  -7  -1 169.326 5.55654   3
   1   7  -1 160.225 5.55506   3
   1  -7  -1 168.912 5.66431   2
   1   7  -1 165.146 5.67346   2
   1   7  -1 162.054 5.58393   1
   1  -7  -1 170.488 5.61040   1
  -1  -7   1 187.345 10.9470  18
   1  -7  -1 169.347 6.93195  15
  -1  -7   1 161.505 7.09243  14
   1   7  -1 155.060 8.02744   6
  -1   7   1 176.278 7.88048   5
   1   7  -1 171.896 7.73890   5
   1  -7  -1 179.923 7.63023   5
   1   7  -1 155.011 5.61608   4
  -1  -7   1 158.928 6.80457  13
   1   7  -1 150.711 7.48042  10
  -1  -7   1 159.721 8.36767  11
  -1   7   1 164.542 8.23651  10
   1  -7  -1 168.886 8.99119   9
  -1  -7   1 168.979 8.49897   9
   1   7  -1 170.889 6.38321   7
  -1   7   0 3.24071 0.78164   3
  -1  -7   0 4.45087 0.81166   3
  -1  -7   0 3.02926 0.76179   1
  -1   7   0 3.95679 0.75416   1
   1   7   0 4.07586 1.87925  17
   1  -7   0 4.09909 3.69255  18
  -1  -7   0 5.64570 4.26660  18
   1   7   0 3.43458 1.44318  15
   1  -7   0 4.68549 1.41161  15
   1  -7   0 4.99212 1.75690   5
   1   7   0 4.62568 2.07912   6
  -1  -7   0 3.66302 1.27909  14
   1  -7   0 9.20404 3.00017  11
   1   7   0 3.76641 1.90574  10
  -1   7   0 4.61219 1.61161   8
  -1   7   0 3.10144 2.47406   9
   1   7   0 2.85693 1.10589   7
   1  -7   0 1.75877 2.13189   9
  -1  -7  -1 3.27056 1.45167   3
  -1   7  -1 1.77075 1.34281   3
  -1  -7  -1 4.18913 1.50262   1
  -1   7  -1 2.00599 1.31713   1
   1   7   1 2.24684 2.55315   2
   1  -7   1 3.07243 2.84114   2
   1   7   1 0.70694 1.58752  17
   1  -7   1 3.56623 3.45926  18
   1   7   1 0.93302 1.83796  15
   1   7   1 1.40812 1.83050   6
   1  -7   1 1.69106 1.83192   5
   1  -7   1 3.32602 3.11056   7
  -1  -7  -1 0.56375 0.80880  14
   1   7   1 2.11169 1.61769  10
  -1  -7  -1 3.13294 1.97146  10
   1  -7   1 0.50479 2.27644  11
  -1   7  -1-0.80690 2.39358   9
  -1   7  -1 0.64381 1.47970   8
   1   7   2 359.023 12.9439   2
   1  -7   2 356.094 13.4158   2
  -1   7  -2 362.190 15.9128  18
   1   7   2 337.923 12.0478  17
   1   7   2 375.480 12.9686  15
  -1  -7  -2 330.124 13.3356  15
   1  -7   2 337.236 13.1330   5
  -1  -7  -2 337.482 13.6478   6
  -1   7  -2 341.339 10.9731  13
   1  -7   2 383.363 15.9475  11
   1   7   2 347.566 12.7840  10
  -1  -7  -2 342.311 13.6783  10
  -1   7  -2 333.253 15.0506  11
   1  -7   2 370.503 14.2676   7
  -1   7  -2 342.316 13.4178   8
  -1   7  -2 353.358 14.6731   9
   1   7   3 656.655 23.0301   2
   1  -7   3 684.335 23.7081   2
  -1   7  -3 701.037 26.0697  18
  -1  -7  -3 687.915 21.8993  17
   1   7   3 703.630 22.8084  15
  -1  -7  -3 715.859 24.0680  15
   1   7   3 685.273 22.7122   4
  -1  -7  -3 707.276 23.3581   6
   1  -7   3 733.491 23.4188   4
  -1   7  -3 738.893 25.7470  11
  -1  -7  -3 702.178 23.6646  10
   1  -7   3 709.665 25.2980  11
  -1   7  -3 698.513 23.3436   8
   1  -7   3 637.802 24.0997   7
   1   7   3 679.855 22.5869   7
   1   7   4 386.745 15.9309   2
   1  -7   4 371.318 16.3505   2
  -1   7  -4 362.684 17.6963  18
  -1  -7  -4 401.483 13.9710  17
   1   7   4 406.903 15.5561  15
   1  -7   4 404.561 14.2425  15
  -1  -7  -4 395.802 16.6631  15
  -1  -7  -4 403.090 15.2971   6
   1  -7   4 387.257 15.9841   4
   1   7   4 395.198 15.5262   4
   1   7   4 432.904 14.1398  12
  -1  -7  -4 377.116 15.4943  10
  -1   7  -4 427.187 17.9239  11
   1  -7   4 375.974 16.5604  11
   1  -7   4 409.590 15.4238   8
   1  -7   4 363.391 17.1072   7
   1   7   4 374.872 15.3953   7
   1  -7   5 53.1205 5.21063   8
  -1  -7  -5 56.5405 6.85051  15
   1   7   5 68.5210 6.33727  15
  -1  -7  -5 60.3192 5.11943   6
   1   7   5 72.8655 7.18067   4
   1  -7   5 45.5771 7.96136   7
   1   7   5 62.3703 6.90269   7
   1  -7   5 60.5718 7.41520   4
   1   7   5 66.6933 4.37847  12
  -1  -7  -5 63.8997 5.63335  10
  -1   7  -5 57.2239 6.83752  11
   1  -7   5 56.9691 5.86534  11
   1  -7   5 62.6283 7.62826   2
   1   7   5 56.6512 6.62894   2
   1  -7   6 434.149 16.6625   8
   1  -7   6 414.658 19.9091   7
   1  -7   6 416.402 17.6979  14
  -1  -7  -6 406.484 19.1497  15
   1   7   6 418.007 17.3897  15
  -1  -7  -6 397.819 15.9749   6
   1  -7   6 450.931 18.7694   4
   1   7   6 426.884 14.5776  12
   1  -7   6 441.189 17.9838  11
  -1  -7  -6 429.529 17.3581  10
  -1   7  -6 380.242 18.3102  11
   1   7   6 411.790 18.6386   2
   1  -7   6 398.125 18.7637   2
   1  -7   7 32.0704 8.34657   7
   1  -7   7 34.8433 4.80475   8
  -1  -7  -7 37.8908 5.00470  10
  -1  -7  -7 29.9996 7.31578  15
   1  -7   7 30.7586 7.46752   4
   1  -7   7 29.0575 4.90319  14
   1  -7   7 32.6565 4.98174  11
   1  -7   7 35.1057 7.95098   2
   1   7   7 35.6870 7.19718   2
   1  -7   8 193.760 11.5426  14
  -1  -7  -8 226.782 14.7904  15
   1  -7   8 202.958 14.9965   7
  -1  -7  -8 219.021 11.9639  10
   1   7   8 232.881 14.3628   2
   1  -7   8 213.400 14.3262   2
   1  -7   9-2.38591 3.65435  14
   1  -7   9-1.71358 6.81874   2
   1   7   9 3.18331 6.52614   2
   1  -7   9 2.77780 6.80130   7
  -1  -7  -9-1.22221 3.33123  10
   1  -7  10 58.4028 6.67672  14
   1  -7  10 69.1739 10.6459   7
  -1  -7 -10 63.4862 7.10808  10
   1  -7  10 56.4358 9.84812   2
  -1  -7 -11 6.15637 4.36355  10
   1  -7  11 7.29275 7.25498   7
   1  -7  11-1.96726 8.38888   2
  -1  -8  12 289.974 18.8680   7
  -1  -8  11 12.2669 4.20837  14
   1  -8 -11 11.5210 7.59747  15
  -1  -8  11 1.77918 6.58609   7
  -1  -8  10 333.413 15.8074  14
   1  -8 -10 320.017 18.8527  15
  -1  -8  10 381.493 19.3634   7
   1  -8 -10 334.143 16.6518  10
  -1  -8  10 315.606 17.5343   2
  -1  -8   9 13.3671 5.80481   7
  -1  -8   9 10.1328 3.42154  14
   1  -8  -9 5.03393 3.34760  10
  -1  -8   9 9.49162 5.40123   2
   1  -8  -9 18.1772 6.78009  15
  -1  -8   8 47.7734 7.15433   7
  -1  -8   8 55.8440 5.92733  14
   1  -8  -8 46.6173 7.82634  15
   1  -8  -8 58.7743 6.39160  10
  -1  -8   8 51.9943 6.70565   2
  -1  -8   7 15.7170 4.98598   7
   1  -8  -7 20.0493 6.47796  15
   1   8  -7 19.9964 3.27512  16
   1   8  -7 33.1977 9.38695   7
  -1  -8   7 23.8316 4.14494  14
   1  -8  -7 8.79109 3.56784  10
  -1  -8   7 17.2883 3.73483  11
  -1   8   7 15.3490 4.70812   2
  -1  -8   7 20.6336 4.99782   2
  -1   8   6 19.8855 4.35905   2
  -1  -8   6 26.4584 4.95967   2
   1   8  -6 15.7258 7.38401  18
   1  -8  -6 26.8543 5.63884  15
  -1   8   6 26.8980 4.67799  15
  -1  -8   6 27.1046 3.62498   5
   1   8  -6 27.5544 7.66051   7
   1   8  -6 18.7216 3.10095  13
  -1  -8   6 14.6791 3.36892  14
   1  -8  -6 26.3224 4.46154  10
  -1  -8   6 18.8557 3.65619  11
   1   8  -6 21.7373 3.47526   8
  -1  -8   6 20.4987 5.03431   7
  -1  -8   5 9.47894 3.29258   2
   1  -8  -5-0.84441 5.69073   2
  -1   8   5 3.16104 2.88603   2
   1   8  -5 20.0093 6.53124  18
   1  -8  -5 8.01506 4.25721  15
  -1   8   5 6.18000 3.25382  15
  -1  -8   5 8.47168 2.67008   5
   1   8  -5 15.1201 6.58388   7
  -1  -8   5 13.4384 2.97871  14
   1   8  -5 6.03744 2.16807  13
  -1  -8   5 9.48369 3.30886  11
   1  -8  -5 4.86138 2.95507  10
   1   8  -5 9.21152 3.76817  11
   1   8  -5 11.6531 2.73084   8
  -1  -8   5 9.63029 3.76391   7
   1   8  -5 9.01461 3.46502   9
   1  -8  -4 75.0164 6.51801   2
   1   8  -4 85.1127 9.10549  18
   1  -8  -4 60.0359 5.83506  15
  -1  -8   4 72.0574 5.44452  14
  -1   8   4 79.0995 5.47766  15
  -1   8   4 76.8397 4.76943   6
  -1   8   4 72.4555 5.06631   5
  -1  -8   4 83.1119 5.38038   5
   1   8  -4 80.5847 4.90154  13
  -1  -8   4 79.1731 6.10817  11
   1  -8  -4 65.3802 5.79969  10
  -1   8   4 66.0776 5.14846  10
   1   8  -4 81.9385 6.50234  11
   1   8  -4 78.7401 5.97851   9
  -1  -8   4 74.2632 5.56349   7
   1   8  -4 75.4926 7.33311   7
   1   8  -4 71.5754 5.38979   8
   1   8  -3 0.85380 1.06853   3
   1  -8  -3 1.99908 1.08699   3
   1  -8  -3-1.15615 3.27178   2
   1   8  -3-0.24513 3.20800   2
   1   8  -3 2.36775 4.52317  18
  -1   8   3 2.57141 1.03227  17
  -1   8   3 1.34604 2.16917  15
   1  -8  -3 0.65630 2.39319  15
  -1   8   3 3.16092 2.11113   6
   1  -8  -3 2.79266 2.85180   4
  -1   8   3 1.55133 1.77854   5
   1   8  -3 3.46336 2.83568   4
   1   8  -3 5.09892 3.73876   7
  -1  -8   3 5.40316 2.04763  14
   1   8  -3-0.46946 1.72466  13
  -1  -8   3 0.43286 2.45123  11
  -1   8   3-2.03606 1.94513  10
   1   8  -3 8.47959 3.25158   9
  -1  -8   3-0.26074 2.12614   7
   1  -8  -2 541.814 15.5073   3
   1   8  -2 500.553 15.3829   3
   1   8  -2 519.783 16.3632   2
   1  -8  -2 534.381 16.1604   2
   1   8  -2 522.716 15.4970   1
   1  -8  -2 516.191 15.4788   1
   1   8  -2 575.946 23.5689  18
  -1  -8   2 534.578 22.1578  18
  -1   8   2 517.300 16.1225  17
   1  -8  -2 542.890 17.8445  15
  -1  -8   2 540.716 18.0765  14
   1  -8  -2 533.672 16.1317   4
   1   8  -2 549.013 18.5063   5
  -1   8   2 559.100 18.5375   5
   1   8  -2 539.228 16.3829   4
  -1  -8   2 526.476 17.1458  13
  -1  -8   2 558.011 19.9325  11
  -1   8   2 531.701 18.8202  10
   1   8  -2 525.607 17.4719   7
   1  -8  -2 528.585 20.1204   9
  -1  -8   2 523.192 19.5378   9
   1   8  -1 67.7481 3.00668   2
   1  -8  -1 60.2166 2.86722   2
   1  -8  -1 68.6708 2.87896   1
   1   8  -1 73.9535 2.98604   1
  -1  -8   1 71.6978 7.59069  18
   1  -8  -1 75.9539 7.14176  18
   1  -8  -1 68.9065 4.17974  15
  -1  -8   1 67.4385 4.31550  14
  -1   8   1 75.0839 5.06830   5
   1   8  -1 67.9659 2.87390   3
   1   8  -1 64.0820 5.34392   6
   1   8  -1 61.6870 2.96031   4
   1  -8  -1 69.7053 2.85291   3
   1  -8  -1 66.7388 2.91864   4
   1   8  -1 60.4608 4.66142   5
  -1  -8   1 66.1053 4.04706  13
  -1  -8   1 78.3179 5.86105  11
  -1   8   1 64.8787 5.19235  10
   1   8  -1 62.7025 4.76713  10
   1  -8  -1 78.7149 6.22809   9
   1   8  -1 66.1846 3.86727   7
  -1  -8   1 68.7966 5.56237   9
  -1  -8   0 736.484 21.1170   3
   1  -8   0 805.421 22.1180   2
  -1  -8   0 826.389 29.3008  18
   1  -8   0 769.221 27.4245  18
   1   8   0 767.768 24.6670  17
  -1  -8   0 819.415 23.5884  14
   1   8   0 749.114 22.1238  15
   1  -8   0 792.203 22.8791  15
   1   8   0 794.677 25.3149   6
   1  -8   0 795.119 24.7323   5
   1   8   0 796.777 24.9420   5
   1   8   0 786.869 24.7659  10
   1  -8   0 724.162 27.3365  11
   1  -8   0 783.684 22.5637   7
   1   8   0 751.376 21.6433   7
  -1   8   0 781.655 25.4410   8
   1  -8   0 722.408 26.6058   9
  -1   8   0 817.583 26.5730   9
  -1  -8   0 796.012 26.4445   9
  -1   8  -1 14.5759 1.68440   3
  -1  -8  -1 15.0120 1.81938   3
  -1  -8  -1 17.6432 1.87745   1
   1  -8   1 17.6403 3.12943   2
  -1   8  -1 14.0276 1.64784   1
   1   8   1 24.8758 2.87659   2
   1   8   1 16.5645 2.52063  17
  -1  -8  -1 17.6016 5.29162  18
   1  -8   1 15.8291 4.53635  18
   1   8   1 19.5170 2.60773  15
   1  -8   1 17.6623 2.85473   5
   1   8   1 15.3172 2.78488   6
   1  -8   1 14.7217 3.27534   7
  -1  -8  -1 20.6300 2.01680  14
   1  -8   1 12.3540 3.57299  11
   1   8   1 19.0657 2.77229  10
  -1  -8  -1 13.9393 2.89431  10
  -1   8  -1 19.0589 3.59737   9
  -1   8  -1 13.7254 2.72655   8
  -1  -8  -2 7.16009 2.43281   3
  -1   8  -2 4.68641 2.28066   3
   1  -8   2-0.26530 3.50429   2
  -1   8  -2 8.46721 2.39988   1
  -1  -8  -2 6.18147 2.43975   1
   1   8   2-2.47573 3.12900   2
  -1   8  -2 9.46844 4.44109  18
   1   8   2 2.11843 1.55991  17
  -1  -8  -2 3.00548 3.08415  15
   1   8   2 0.50514 2.27922  15
   1  -8   2 2.99816 3.35976   7
   1   8   2 8.07548 2.79020   4
   1  -8   2 4.36909 3.09670   4
   1   8   2 2.14315 2.00960   6
   1  -8   2 0.98873 1.99978   5
  -1   8  -2 3.68143 1.10457  13
   1  -8   2 0.56913 2.80335  11
  -1  -8  -2 2.95112 2.17543  10
  -1   8  -2 3.12256 3.28757  11
  -1   8  -2 4.23498 3.00172   9
  -1   8  -2 3.00118 1.99221   8
   1   8   2 1.79919 1.67919  10
   1   8   3 160.821 8.14851   2
   1  -8   3 152.490 8.67286   2
  -1  -8  -3 145.383 7.34495  17
  -1   8  -3 147.941 10.7168  18
   1   8   3 179.444 8.39405  15
  -1  -8  -3 156.743 9.09268  15
   1  -8   3 156.053 8.26794   5
   1  -8   3 165.313 8.50141   4
  -1  -8  -3 148.231 8.47114   6
   1  -8   3 156.590 9.95301  11
  -1  -8  -3 139.172 8.50078  10
  -1   8  -3 166.685 10.3679  11
  -1   8  -3 157.905 8.47576   8
  -1   8  -3 156.447 9.52341   9
   1  -8   3 159.265 9.56760   7
   1  -8   4 370.010 15.8009   2
   1   8   4 382.235 15.4968   2
  -1   8  -4 383.048 18.5969  18
   1   8   4 384.735 15.1146  15
  -1  -8  -4 366.382 16.3127  15
  -1  -8  -4 380.541 15.3861   6
   1  -8   4 388.595 15.6335   4
   1   8   4 398.943 13.9562  12
   1  -8   4 372.780 16.7002  11
  -1   8  -4 346.077 16.9453  11
  -1  -8  -4 387.614 15.9229  10
   1  -8   4 342.708 16.5519   7
  -1   8  -5 12.0310 6.13807  18
  -1  -8  -5 8.08671 5.41443  15
   1   8   5 10.5815 4.48646  15
   1  -8   5 6.70649 6.36374   7
  -1  -8  -5 11.6871 3.30723   6
   1   8   5 10.9729 2.46761  12
   1  -8   5 11.3735 3.84223  11
  -1   8  -5 8.99464 4.76336  11
  -1  -8  -5 17.2301 3.89322  10
   1  -8   5 15.6778 5.87176   2
   1   8   5 14.5538 5.05999   2
   1  -8   6 59.7982 8.52964   7
   1  -8   6 82.0099 6.55677   8
  -1  -8  -6 62.2023 8.56647  15
   1   8   6 68.5662 7.31771  15
   1  -8   6 63.2094 6.90407  14
  -1  -8  -6 64.7385 6.07134   6
   1  -8   6 67.5962 6.66570  11
  -1  -8  -6 64.2295 6.41776  10
  -1   8  -6 74.5391 8.03413  11
   1   8   6 55.8961 7.50083   2
   1  -8   6 83.0067 8.85438   2
  -1  -8  -7-1.49658 5.65415  15
   1  -8   7 4.81851 5.74308   2
   1  -8   7 4.05572 3.55063  14
   1  -8   7 1.19024 3.02430  11
  -1  -8  -7 6.42569 3.57982  10
   1  -8   7 5.42932 6.85910   7
   1  -8   8 228.046 15.5852   7
   1  -8   8 221.812 12.7982  14
   1  -8   8 272.264 13.7439  11
  -1  -8  -8 244.379 13.2638  10
   1  -8   8 243.270 15.3483   2
   1  -8   9 58.0367 9.70883   7
  -1  -8  -9 54.8588 6.68748  10
   1  -8   9 63.2392 9.62497   2
   1  -8   9 47.1891 6.40522  14
   1  -8  10 41.4327 6.21831  14
  -1  -8 -10 46.6712 6.32115  10
   1  -8  11 30.1445 9.55778   7
  -1  -8 -11 40.0444 6.54329  10
  -1  -9  12 63.9243 7.21732  14
  -1  -9  11 25.7359 5.05801  14
   1  -9 -11 45.9512 9.54452  15
  -1  -9  11 32.7729 7.83539   7
  -1  -9  10 54.8246 6.37078  14
   1  -9 -10 60.8683 9.55573  15
   1  -9 -10 60.1909 7.38510  10
  -1  -9  10 58.7403 8.87987   7
  -1  -9   9 0.59439 2.92667  14
   1  -9  -9 10.5505 6.53824  15
   1  -9  -9 0.67862 3.69937  10
  -1  -9   9-0.74029 5.55473   7
  -1  -9   8 38.8794 5.05350  14
   1  -9  -8 37.1045 7.05681  15
   1  -9  -8 39.8918 5.68855  10
  -1  -9   8 31.1030 6.18750   7
   1   9  -7 52.1898 4.85920  16
   1   9  -7 30.6718 8.30355  18
   1  -9  -7 45.2525 7.40701  15
  -1  -9   7 50.5408 5.59372  14
  -1  -9   7 59.5773 5.58955  11
   1  -9  -7 41.1352 5.82513  10
  -1  -9   7 41.2647 6.42006   7
  -1  -9   6 49.9635 5.41020  14
   1  -9  -6 72.7648 7.72525  15
  -1   9   6 56.5751 5.96432  15
   1   9  -6 58.8144 9.72271  18
  -1  -9   6 49.4330 4.93123   5
  -1  -9   6 55.5412 5.57331  11
   1  -9  -6 54.8317 6.14776  10
   1   9  -6 52.1964 5.17427   8
  -1  -9   6 54.4785 6.44376   7
  -1  -9   5 131.351 8.03715   2
   1   9  -5 175.974 13.6575  18
  -1   9   5 159.631 8.68856  15
   1  -9  -5 153.252 9.87780  15
  -1  -9   5 162.253 9.03798  14
  -1   9   5 160.775 8.34582   5
  -1  -9   5 162.913 8.22494   5
   1  -9  -5 157.524 9.67426  10
  -1   9   5 167.815 8.49446  10
  -1  -9   5 135.267 8.61849  11
   1   9  -5 150.480 9.10713   9
  -1  -9   5 139.403 8.86700   7
   1   9  -5 157.544 8.51425   8
   1   9  -4 538.056 25.1930  18
   1  -9  -4 568.630 20.2725  15
  -1  -9   4 538.282 19.8778  14
  -1   9   4 556.727 19.0144  15
  -1   9   4 517.318 18.1607   6
  -1  -9   4 564.364 19.0818   5
  -1   9   4 550.018 19.1620   5
   1   9  -4 554.333 18.2146  13
  -1  -9   4 530.316 20.4325  11
  -1   9   4 556.274 19.3787  10
   1   9  -4 498.710 20.1908  11
  -1  -9   4 541.390 19.1043   7
   1   9  -4 548.133 19.5596   8
   1   9  -4 527.292 20.0193   9
   1   9  -3-0.85868 5.26070  18
   1  -9  -3 2.43199 2.91461  15
  -1   9   3-1.39690 2.67231  15
  -1   9   3 2.93180 2.52777   6
  -1   9   3 2.46126 1.99095   5
   1   9  -3 1.50662 1.79030  13
  -1  -9   3-0.36584 1.80129  14
  -1  -9   3 0.49000 2.77449  11
  -1   9   3 0.37583 2.25411  10
   1  -9  -3 0.56185 2.76629   9
   1  -9  -2 88.0274 3.79628   1
  -1  -9   2 93.9704 9.13370  18
   1   9  -2 102.154 9.65983  18
  -1   9   2 94.8429 4.78529  17
   1  -9  -2 101.894 6.02484  15
  -1  -9   2 103.590 6.09426  14
  -1   9   2 93.5276 6.16676   5
   1   9  -2 109.675 6.53856   5
  -1  -9   2 101.811 7.39976  11
   1   9  -2 98.2573 6.43981  10
  -1   9   2 113.595 6.94602  10
   1  -9  -2 84.0167 7.00800   9
  -1  -9   2 110.879 7.54740   9
  -1  -9   1 14.7051 5.79269  18
   1  -9  -1 16.1316 5.22240  18
   1  -9  -1 21.7876 2.89020  15
   1   9  -1 16.4911 3.42947   6
   1   9  -1 21.5775 3.14747   5
  -1   9   1 16.6636 2.94429   5
  -1  -9   1 17.3179 2.32586  13
   1  -9  -1 16.1696 1.56018  13
  -1  -9   1 17.0455 2.59449  14
  -1  -9   1 8.25791 3.32930  11
  -1   9   1 17.1737 3.58885  10
   1  -9  -1 16.0995 3.90015  11
   1   9  -1 17.0830 3.13135  10
  -1  -9   1 17.9866 3.64940   9
   1  -9  -1 16.4618 3.69032   9
  -1  -9   0 111.144 9.96102  18
   1   9   0 104.410 6.44777  17
   1  -9   0 114.691 9.06371  18
   1  -9   0 120.187 5.34450  15
  -1  -9   0 110.393 5.61331  14
   1  -9   0 115.117 6.62508   5
   1   9   0 117.438 7.14239   6
   1   9   0 99.6583 6.41750   5
  -1  -9   0 107.343 5.75852  13
   1  -9   0 119.458 8.81253  11
   1   9   0 96.2144 6.36816  10
   1  -9   0 115.782 8.26986   9
  -1  -9   0 101.836 7.55862   9
   1  -9   0 117.492 4.73179   7
  -1   9   0 122.139 7.40444   8
  -1  -9  -1 121.405 4.65083   3
   1  -9   1 124.230 5.47194   2
  -1  -9  -1 132.614 5.78821  14
   1  -9   1 124.250 5.39170  15
   1   9   1 128.465 6.72378  17
   1  -9   1 122.228 9.35154  18
  -1  -9  -1 115.144 10.3170  18
   1  -9   1 134.848 7.26401   5
   1   9   1 131.643 7.36786   6
   1  -9   1 142.714 9.67139  11
   1   9   1 133.745 7.16115  10
  -1   9  -1 133.353 8.51256   9
  -1   9  -1 126.107 7.58714   8
   1  -9   1 126.094 6.45811   7
   1  -9   2 1270.58 38.4889   2
   1   9   2 1331.72 38.8324  15
  -1  -9  -2 1380.76 40.4022  15
   1   9   2 1336.51 38.8690  17
  -1   9  -2 1306.35 44.0062  18
   1   9   2 1404.16 40.1489   6
   1  -9   2 1390.41 40.4868   5
  -1  -9  -2 1298.76 37.9432   3
   1  -9   2 1315.03 43.6633  11
  -1  -9  -2 1284.27 41.4036  10
   1   9   2 1345.72 39.8721  10
  -1   9  -2 1356.49 42.2944   9
  -1   9  -2 1299.75 40.9526   8
   1  -9   2 1275.55 39.6565   7
   1  -9   3 15.6445 4.13889   2
  -1   9  -3 10.0519 5.68774  18
  -1  -9  -3 15.0232 4.79672  15
   1   9   3 13.5066 3.69869  15
   1  -9   3 9.53782 5.10434   7
   1  -9   3 12.4300 3.19338   5
  -1   9  -3 9.56098 4.58729  11
  -1  -9  -3 15.8743 3.55104  10
   1  -9   3 14.3039 4.44524  11
  -1   9  -3 6.82806 2.81683   8
  -1   9  -3 13.4261 4.09767   9
   1  -9   4 91.6729 7.32771   2
  -1   9  -4 94.0569 9.96679  18
   1   9   4 80.6423 6.67995  15
  -1  -9  -4 82.2770 7.75412  15
  -1  -9  -4 71.5599 6.38277   6
   1  -9   4 86.9920 6.48807   5
   1   9   4 101.473 5.81709  12
  -1  -9  -4 70.3982 6.71802  10
  -1   9  -4 81.5399 8.17788  11
   1  -9   4 91.5746 7.90364  11
   1  -9   4 79.7200 8.01638   7
  -1   9  -4 83.3732 7.58081   9
  -1   9  -5 25.3535 7.56251  18
  -1  -9  -5 34.4469 6.73695  15
   1   9   5 25.0669 5.28639  15
  -1  -9  -5 24.5171 4.55664   6
   1  -9   5 36.8388 4.67705   5
   1  -9   5 30.0661 5.27768  14
   1   9   5 38.1385 3.86706  12
  -1   9  -5 29.8664 6.32254  11
  -1  -9  -5 34.7551 5.28950  10
   1  -9   5 34.9786 5.51772  11
   1  -9   5 25.7030 7.14101   7
  -1   9  -6 144.054 12.6348  18
   1  -9   6 187.749 11.0898  11
   1  -9   6 172.624 10.9291  14
  -1  -9  -6 186.722 12.4980  15
  -1  -9  -6 156.420 10.2720  10
   1  -9   6 156.517 12.0360   7
  -1   9  -7 0.93569 6.02400  18
   1  -9   7 5.52386 3.60072  14
  -1  -9  -7-3.06072 5.78150  15
   1  -9   7 6.11635 6.12240   7
  -1  -9  -7 3.17476 3.68244  10
   1  -9   7 1.25426 3.13778  11
   1  -9   8 32.0460 5.80328  14
   1  -9   8 68.2081 6.96447  11
   1  -9   8 54.7733 8.55476   7
  -1  -9  -8 44.3698 6.27462  10
   1  -9   9 3.31713 4.39066  14
   1  -9   9 0.91354 6.46294   7
  -1  -9  -9 2.84083 3.44053  10
   1  -9  10 85.5918 8.21182  14
   1  -9  10 91.0363 11.3089   7
  -1  -9 -10 80.4492 8.55162  10
   1  -9  11-1.37564 4.16987  14
   1  -9  11-1.03423 7.86723   7
  -1 -10  11 14.7998 4.65527  14
   1 -10 -11 0.99486 7.67484  15
   1  10 -10 185.094 17.0561  18
   1 -10 -10 193.805 13.0029  10
  -1 -10  10 191.252 13.8135   7
   1 -10 -10 181.197 14.3824  15
  -1 -10  10 197.958 12.0204  14
   1  10  -9 97.4367 12.8151  18
   1 -10  -9 109.434 9.68243  10
  -1 -10   9 124.365 10.9057   7
  -1 -10   9 129.335 9.39805  14
   1 -10  -9 106.297 11.2374  15
   1  10  -8 113.809 13.2569  18
   1 -10  -8 118.872 10.6071  15
  -1 -10   8 119.509 8.74192  14
   1 -10  -8 111.036 9.52716  10
  -1 -10   8 128.224 10.0711   7
   1  10  -7 17.9810 8.20264  18
   1 -10  -7 17.9835 6.24353  15
  -1 -10   7 14.4916 3.67293  14
   1 -10  -7 13.7281 4.30219  10
  -1 -10   7 8.67497 4.55972   7
   1  10  -6 16.0065 8.18239  18
   1 -10  -6 17.6501 5.85450  15
  -1  10   6 10.5602 3.86798  15
  -1 -10   6 14.1205 3.56365   5
  -1  10   6 23.2383 3.59292   5
  -1 -10   6 24.4120 4.25476  14
  -1 -10   6 15.9641 3.76616  11
   1 -10  -6 12.3375 4.45090  10
  -1 -10   6 7.48765 4.09067   7
   1  10  -6 15.6211 3.43558   8
   1  10  -5 113.644 12.3635  18
  -1 -10   5 114.618 7.04612   5
  -1  10   5 89.0442 6.38090   5
   1 -10  -5 91.0392 8.04000  15
  -1 -10   5 92.5452 7.07181  14
  -1  10   5 77.6031 6.39293  15
  -1  10   5 91.8534 6.59485  10
  -1 -10   5 102.549 7.81224  11
  -1 -10   5 95.2157 7.17055   7
   1  10  -5 91.5652 6.68156   8
   1  10  -4 38.2883 8.62350  18
  -1  10   4 38.3295 4.42096   5
  -1  10   4 42.5326 4.24890   6
   1 -10  -4 51.2441 5.97994  15
  -1 -10   4 42.4356 4.69702  14
  -1  10   4 45.6363 4.83815  10
  -1 -10   4 38.5475 5.27824  11
   1  10  -4 41.5861 4.55131   8
  -1 -10   4 46.9069 4.78522   7
   1  10  -4 39.6610 5.21045   9
   1  10  -3 89.3424 10.3512  18
  -1  10   3 114.063 7.00429   6
  -1  10   3 115.480 7.15438   5
   1 -10  -3 114.207 7.29766  15
  -1 -10   3 106.528 6.90988  14
  -1 -10   3 101.159 8.04068  11
  -1  10   3 112.880 7.35428  10
   1 -10  -3 105.905 8.49659   9
  -1 -10   2 565.488 24.3583  18
   1 -10  -2 549.429 18.8676  15
  -1 -10   2 540.723 19.2824  14
  -1  10   2 556.789 19.9153   6
   1  10  -2 532.716 19.9001   5
  -1  10   2 560.644 20.1107   5
  -1 -10   2 530.041 21.6433  11
   1  10  -2 543.197 19.9708  10
  -1  10   2 576.715 20.5081  10
   1 -10  -2 537.825 22.0471   9
  -1 -10   2 592.179 22.0815   9
  -1 -10   1 148.031 11.8646  18
   1 -10  -1 131.825 10.6832  18
   1 -10  -1 142.843 6.92773  15
  -1 -10   1 143.518 7.21158  14
   1  10  -1 142.120 8.69065   6
  -1  10   1 133.380 7.92206   5
   1  10  -1 149.303 8.19445   5
  -1 -10   1 137.295 6.62834  13
   1 -10  -1 130.202 9.84673  11
  -1 -10   1 127.614 9.14828  11
  -1  10   1 118.798 8.03307  10
   1  10  -1 153.131 8.33913  10
   1 -10  -1 130.966 9.47248   9
  -1 -10   1 138.013 9.07320   9
   1  10   0 401.121 15.8855  17
  -1 -10   0 371.335 19.9232  18
   1 -10   0 429.304 19.5929  18
  -1 -10   0 418.326 14.6995  14
  -1 -10   0 428.868 14.7699  13
   1  10   0 410.516 16.1669   5
   1  10   0 429.439 16.7697   6
   1 -10   0 433.204 16.0723   5
   1 -10   0 434.212 19.3645  11
   1  10   0 429.244 16.1757  10
  -1  10   0 416.578 16.8030   8
   1 -10   0 468.708 19.2276   9
  -1 -10   0 433.287 18.0580   9
   1  10   1-0.31675 2.18842  17
   1 -10   1 1.27187 5.27555  18
  -1 -10  -1 3.09391 5.88398  18
  -1 -10  -1 2.12258 1.43072  14
   1 -10   1 6.15640 4.10294  11
   1  10   1 5.08742 2.63092  10
  -1  10  -1-1.58850 3.17620   9
  -1  10  -1 2.66865 2.60957   8
   1 -10   1 2.56730 2.47063   5
   1  10   1 5.01479 2.50737   5
   1  10   1 2.72776 2.71393   6
   1  10   2 178.931 8.30702  17
   1  10   2 191.124 9.31189   6
   1 -10   2 177.102 9.26795   5
  -1 -10  -2 172.650 10.1428  10
   1 -10   2 185.182 11.8632  11
   1  10   2 187.657 9.11437  10
  -1  10  -2 176.376 10.6208   9
  -1  10  -2 181.436 9.91411   8
   1  10   3 56.2809 4.25677  17
  -1  10  -3 45.5336 7.88009  18
   1 -10   3 44.8776 4.82395   5
  -1 -10  -3 41.4053 6.22498  15
  -1 -10  -3 52.2245 5.86497  10
   1 -10   3 56.6692 6.83729  11
  -1  10  -3 43.5246 6.41508  11
  -1  10  -3 40.8484 5.72367   9
  -1  10  -3 39.8743 4.87240   8
  -1  10  -4 35.1119 7.97838  18
  -1 -10  -4 40.6354 6.64417  15
   1 -10   4 36.3229 4.86668   5
  -1 -10  -4 26.1624 4.95942  10
  -1  10  -4 29.3645 6.05640  11
   1 -10   4 32.6012 5.74450  11
  -1  10  -4 34.1843 4.76880   8
  -1  10  -4 42.7796 6.16412   9
  -1  10  -5 1.76959 6.63888  18
   1 -10   5 8.18624 4.07137  14
  -1  10  -5-0.71267 5.42112  11
   1 -10   5-3.29588 4.03841  11
  -1 -10  -5-2.46411 3.53033  10
   1 -10   5-7.55044 6.16307   7
  -1 -10  -5 3.66656 5.66749  15
  -1  10  -6 90.5073 10.8864  18
  -1 -10  -6 85.6425 9.33996  15
   1 -10   6 96.7726 8.30413  14
  -1 -10  -6 113.396 8.96895  10
   1 -10   6 100.116 8.53380  11
   1 -10   6 106.264 9.55975   7
   1 -10   7 54.4035 6.72883  14
  -1 -10  -7 64.7900 8.96112  15
  -1 -10  -7 57.4740 6.92858  10
   1 -10   7 60.0411 6.97076  11
   1 -10   7 81.1518 9.08556   7
   1 -10   8 198.744 12.2672  11
   1 -10   8 195.953 12.4597  14
   1 -10   8 204.915 14.3504   7
  -1 -10  -8 178.842 12.3631  10
  -1 -10  -9-1.52576 3.81609  10
   1 -10   9 0.69752 3.64906  11
   1 -10   9-0.69459 4.21077  14
   1 -10  10 90.8642 8.79305  14
  -1 -10 -10 88.3322 9.15650  10
   1  11 -11-7.08176 10.0992  18
   1 -11 -10 19.5977 7.88601  15
   1 -11 -10 17.1141 5.69359  10
   1  11 -10 19.0932 9.19629  18
  -1 -11  10 17.0167 5.02153  14
   1 -11  -9 2.55049 7.01223  15
   1 -11  -9-2.33418 4.40567  10
   1  11  -9 7.83493 7.91635  18
  -1 -11   9 4.58592 3.88639  14
   1 -11  -8 30.7129 7.30712  15
   1 -11  -8 48.9298 6.90772  10
   1  11  -8 41.0684 9.72379  18
  -1 -11   8 47.9864 5.94264  14
   1 -11  -7 10.2732 5.84167  15
  -1 -11   7 0.58765 2.70289  14
   1 -11  -7 15.4121 4.55383  10
   1  11  -7-2.37467 8.13360  18
   1 -11  -6 117.278 9.58224  15
  -1 -11   6 137.072 8.97642  14
  -1  11   6 114.858 7.56854   5
   1  11  -6 110.596 12.9767  18
   1  11  -6 113.014 7.82539   8
   1  11  -5 21.9435 9.06823  18
   1 -11  -5 25.9960 5.85101  15
  -1 -11   5 25.8464 4.00536   5
  -1  11   5 21.2727 3.76987   5
  -1 -11   5 19.3046 3.85629  14
  -1 -11   5 24.1592 4.69705  11
   1  11  -5 19.3924 3.85280   8
   1  11  -4 572.525 27.5107  18
   1 -11  -4 558.006 21.0855  15
  -1 -11   4 554.991 20.9500  14
  -1  11   4 559.891 20.5697   5
  -1 -11   4 569.783 22.3638  11
   1 -11  -4 569.546 23.5510   9
   1  11  -4 556.840 21.5887   9
   1  11  -4 550.476 20.8207   8
   1  11  -3 13.7242 7.67402  18
   1 -11  -3 28.0105 4.89842  15
  -1 -11   3 21.9358 3.59741  14
  -1  11   3 19.1956 3.79700   5
  -1  11   3 20.2475 3.97593   6
  -1 -11   3 16.2638 4.45596  11
  -1  11   3 18.3913 3.98398  10
   1 -11  -3 18.9632 4.82007   9
  -1 -11   2 7.26812 6.68414  18
   1 -11  -2 24.3861 7.02972  18
  -1 -11   2 23.3695 3.44464  14
  -1  11   2 21.5914 4.15042   6
   1  11  -2 18.1002 3.66618   5
  -1  11   2 19.6328 3.74322   5
  -1 -11   2 19.7168 4.90511  11
   1  11  -2 20.5770 3.98739  10
  -1  11   2 24.8701 4.40291  10
  -1 -11   2 27.6290 5.06574   9
   1 -11  -2 22.1499 4.85410   9
   1 -11  -1-0.73937 6.20259  18
  -1 -11   1-8.23603 7.31924  18
   1  11  -1 0.48690 3.49787   6
  -1  11   1 0.45535 2.57831   5
   1  11  -1 0.89564 2.44118   5
  -1 -11   1 3.31478 2.13403  14
  -1 -11   1 1.30560 1.80353  13
   1 -11  -1 0.73892 4.02794  11
  -1 -11   1-3.71086 4.01894  11
   1  11  -1-0.85121 2.86629  10
  -1  11   1 2.88731 3.18443  10
  -1 -11   1 6.13765 3.98833   9
   1 -11  -1 0.67657 3.43687   9
   1  11   0 85.1003 6.33757  17
  -1 -11   0 69.9192 10.1747  18
   1 -11   0 90.4081 9.68538  18
  -1 -11   0 82.3353 5.34949  14
  -1 -11   0 97.1512 5.57837  13
  -1  11   0 98.7356 7.44567  10
   1 -11   0 104.813 9.37125  11
   1  11   0 78.3687 6.38341  10
  -1 -11   0 93.6311 7.98251   9
   1 -11   0 104.648 8.74438   9
  -1  11   0 104.615 7.42383   8
   1  11   0 90.3449 6.60518   5
   1  11   0 104.581 7.36214   6
   1  11   1 4.46001 2.59226  17
   1 -11   1-7.64271 6.05108  18
  -1 -11  -1-2.52989 6.58596  18
   1 -11   1 3.73489 4.12516  11
   1  11   1 3.54830 2.56212  10
  -1 -11  -1-1.27225 3.51304   9
  -1  11  -1 1.95219 2.72969   8
   1  11   1-0.42483 2.54812   5
   1 -11   1 3.54852 2.72327   5
   1  11   1-0.84455 3.03374   6
  -1 -11  -2 448.481 22.4929  18
   1  11   2 428.225 15.8378  17
   1  11   2 459.014 17.1909   6
   1 -11   2 466.069 17.3596   5
   1  11   2 429.988 17.2198   5
   1  11   2 436.535 16.8182  10
   1 -11   2 441.811 20.4853  11
  -1  11  -2 427.510 18.8926   9
  -1  11  -2 469.254 18.3314   8
  -1  11  -3 263.183 16.0421  18
  -1 -11  -3 223.516 12.7246  10
   1 -11   3 232.233 13.9330  11
  -1  11  -3 236.734 13.1162   9
  -1  11  -3 251.437 12.3140   8
   1 -11   3 237.160 12.6366  14
  -1  11  -4 353.480 20.0087  18
   1 -11   4 364.159 16.9161  14
  -1 -11  -4 381.505 17.1048  15
   1 -11   4 381.464 18.2874  11
  -1  11  -4 381.583 18.6290  11
  -1 -11  -4 392.941 17.7387  10
  -1  11  -4 369.189 16.1693   8
  -1 -11  -5 63.3473 7.87519  15
  -1 -11  -5 57.9115 6.78259  10
   1 -11   5 55.8101 6.90622  11
  -1  11  -5 52.0672 9.12829  18
   1 -11   5 44.6069 6.23090  14
   1 -11   6 187.076 12.1183  14
  -1 -11  -6 223.045 13.1024  10
   1 -11   6 240.380 13.4863  11
  -1  11  -6 186.172 15.4100  18
   1 -11   7 13.2073 4.68718  11
  -1 -11  -7 7.50253 4.20251  10
   1 -11   7 6.80274 4.34423  14
   1 -11   8 69.0012 7.49082  11
  -1 -11  -8 75.1149 8.27754  10
   1 -11   8 53.5827 7.15049  14
  -1 -11  -9-0.82084 4.35535  10
   1 -11   9 5.07943 4.62733  14
   1 -12 -10 93.9683 11.7746  15
  -1 -12  10 121.826 9.73114  14
   1  12 -10 102.902 14.2065  18
   1 -12 -10 94.4586 9.90631  10
  -1 -12   9 102.288 8.65169  14
   1 -12  -9 98.3419 11.1081  15
   1 -12  -9 85.5522 9.16035  10
   1  12  -9 83.9816 13.2987  18
   1 -12  -8 18.0857 6.89634  15
   1 -12  -8 12.5554 5.25574  10
  -1 -12   8 18.2686 4.52573  14
   1  12  -8 13.0236 9.29434  18
  -1 -12   7-1.23515 2.88981  14
   1  12  -7-5.01141 8.36419  18
   1 -12  -7 2.11385 5.32357  15
   1 -12  -6 18.7103 5.93281  15
  -1  12   6 20.0741 3.90096   5
  -1 -12   6 15.5918 4.08028  14
   1  12  -6 14.4835 8.14174  18
   1  12  -6 17.9142 3.78887   8
  -1  12   5 190.429 10.2372   5
  -1 -12   5 204.683 11.0908  14
   1  12  -5 153.991 15.1701  18
   1 -12  -5 213.982 13.4172   9
   1  12  -5 172.805 10.1339   8
   1  12  -4 65.9190 11.0204  18
  -1  12   4 60.4907 5.74125   5
  -1 -12   4 63.0328 5.84770  14
  -1 -12   4 74.5798 7.26762  11
   1 -12  -4 54.5292 7.13914   9
   1  12  -4 50.9676 5.67433   8
   1  12  -3 67.1968 10.5673  18
  -1  12   3 60.3566 5.86790   6
  -1  12   3 60.2159 5.78337   5
  -1 -12   3 52.0042 5.24373  14
  -1 -12   3 40.7836 6.43758  11
   1  12  -3 59.5155 6.19319  10
   1 -12  -3 59.0387 7.55844   9
   1  12  -3 57.4031 5.88626   8
  -1 -12   2 446.772 22.5689  18
   1 -12  -2 408.553 21.4783  18
  -1 -12   2 427.177 16.9078  14
  -1  12   2 421.798 17.7281   6
  -1  12   2 466.750 18.2348   5
   1  12  -2 461.959 18.3495   5
  -1 -12   2 447.026 20.1100  11
   1  12  -2 450.088 17.9917  10
   1 -12  -2 518.780 21.5757   9
  -1 -12   2 445.363 19.9510   9
  -1 -12   1 14.0922 7.61897  18
   1 -12  -1 16.1347 7.74371  18
   1  12  -1 19.8194 4.56545   6
   1  12  -1 25.9860 4.57302   5
  -1 -12   1 25.9992 3.48241  14
  -1 -12   1 19.9265 5.23197  11
   1 -12  -1 34.1160 6.37696  11
   1  12  -1 26.0576 4.58406  10
   1 -12  -1 37.0283 6.34869   9
  -1 -12   1 23.0583 5.33623   9
  -1 -12   0 291.705 18.1035  18
   1  12   0 291.359 13.0494  17
   1 -12   0 283.783 17.0874  18
   1  12   0 297.849 13.8809   6
   1  12   0 294.503 13.5844   5
   1 -12   0 280.027 12.8445  14
   1 -12   0 283.417 16.4506  11
  -1 -12   0 305.200 15.6809  11
  -1  12   0 276.680 13.8641  10
   1  12   0 295.024 13.2256  10
  -1 -12   0 319.787 15.8405   9
  -1  12   0 312.608 14.2642   8
   1 -12   0 283.558 15.8755   9
   1 -12   1 102.276 10.7955  18
   1  12   1 120.519 7.33336  17
   1 -12   1 129.528 8.45878  14
   1 -12   1 133.958 10.8590  11
   1  12   1 130.057 7.98219  10
  -1 -12  -1 136.968 10.0259   9
  -1  12  -1 103.276 8.05754   8
   1  12   1 111.244 7.94778   6
   1  12   1 115.080 7.83076   5
   1 -12   2 94.0069 7.62322  14
   1 -12   2 86.6792 9.05715  11
  -1  12  -2 107.996 8.01023   8
   1  12   2 90.4963 6.94741   6
   1  12   2 98.3748 7.23277   5
   1 -12   3 101.397 8.12819  14
   1  12   3 99.1340 7.23883   5
   1 -12   3 112.458 9.73023  11
  -1  12  -3 91.7984 7.44931   8
  -1  12  -4 36.4045 8.63790  18
   1 -12   4 32.4022 5.75548  14
  -1 -12  -4 40.2848 6.24043  10
   1 -12   4 39.6795 6.41068  11
  -1  12  -4 42.2214 5.34205   8
   1 -12   5 73.8136 7.65963  14
  -1  12  -5 84.6034 11.1634  18
   1 -12   5 81.5709 8.30200  11
  -1 -12  -5 86.7691 8.65264  10
  -1 -12  -6 88.1110 8.86129  10
   1 -12   6 91.4083 8.80333  11
   1 -12   6 98.5112 8.69790  14
   1 -12   7 71.7395 8.15080  11
  -1 -12  -7 69.1146 8.16960  10
   1 -12   7 75.1680 8.18053  14
  -1 -12  -8 112.803 10.5225  10
   1 -12   8 136.884 10.7905  14
   1 -12   8 127.348 10.1647  11
  -1 -12  -9 3.48831 4.56267  10
   1 -12   9 1.50981 4.42845  14
   1  13 -10 21.7684 10.2823  18
   1 -13  -9 18.9333 5.82343  10
  -1 -13   9 25.5484 5.35513  14
   1  13  -9 15.4652 9.64669  18
  -1 -13   8 45.4899 6.12269  14
   1  13  -8 73.3862 12.3286  18
   1  13  -7 102.316 13.7772  18
  -1 -13   7 97.8684 8.33047  14
  -1 -13   6 79.3422 7.39293  14
   1  13  -6 92.1958 12.9406  18
   1  13  -6 81.1836 7.04060   8
  -1  13   6 101.350 7.53722   5
  -1 -13   5 85.1104 7.21836  14
  -1  13   5 82.6200 6.89003   5
   1  13  -5 82.1075 12.0263  18
   1 -13  -5 72.2608 8.53598   9
   1  13  -5 75.3915 6.72494   8
  -1 -13   4 37.9505 4.89782  14
  -1  13   4 35.6634 4.78266   5
   1  13  -4 37.9298 9.63803  18
   1 -13  -4 41.3816 6.64812   9
   1  13  -4 34.5187 5.24214   8
  -1  13   3 25.4351 4.39605   5
  -1 -13   3 13.3105 3.16981  14
  -1 -13   3 12.8426 4.73737  11
   1 -13  -3 13.6073 4.81636   9
   1  13  -3 11.1370 3.70543   8
  -1 -13   2 112.664 7.25822  14
  -1  13   2 86.2560 7.25231   5
   1  13  -2 100.670 7.85270   5
  -1  13   2 86.2893 7.37040   6
  -1 -13   2 128.226 10.1917  11
   1 -13  -2 104.586 10.1330  11
   1 -13  -2 90.6720 9.33276   9
  -1 -13   2 112.596 9.43422   9
   1 -13  -1 30.4452 8.41504  18
   1  13  -1 26.1080 4.46543   5
  -1 -13   1 25.4759 3.59919  14
  -1 -13   1 23.4391 5.90135  11
   1 -13  -1 21.1730 6.07616  11
  -1 -13   1 25.9706 5.71791   9
   1 -13  -1 16.9063 5.31779   9
   1  13   0 132.380 8.41914  17
   1 -13   0 131.655 8.26573  14
   1  13   0 134.894 8.94425   5
   1 -13   0 132.737 11.5526  11
  -1 -13   0 150.551 11.0598  11
  -1 -13   0 115.254 9.95611   9
  -1  13   0 137.819 9.37011   8
   1 -13   0 126.086 10.6358   9
   1  13   1 2.01604 2.88943   5
   1 -13   1 8.30263 3.56216  14
   1 -13   1 1.74441 4.49791  11
  -1 -13  -1-0.75049 3.92690   9
  -1  13  -1 3.45412 3.52778   8
   1  13   2 98.4146 7.32513   5
   1 -13   2 89.4922 7.80143  14
   1 -13   2 92.0364 9.48671  11
  -1 -13  -2 95.3479 9.21906   9
  -1  13  -2 107.179 8.22636   8
   1  13   3 593.349 22.1086   5
   1 -13   3 569.857 22.9748  14
   1 -13   3 626.800 26.1876  11
  -1  13  -3 575.477 22.8161   8
  -1  13  -4 253.206 17.3458  18
   1 -13   4 276.791 14.3638  14
   1  13   4 257.370 12.9177   5
  -1  13  -4 259.706 13.4988   8
   1 -13   4 263.752 15.4681  11
  -1 -13  -5 59.9616 7.46495  10
   1 -13   5 62.4758 7.79616  11
   1 -13   5 60.4009 7.34875  14
  -1 -13  -6 270.146 16.0643  10
   1 -13   6 319.350 16.6829  11
   1 -13   6 270.815 15.3357  14
   1 -13   7 1.47502 4.37761  14
  -1 -13  -7 13.6378 5.05853  10
   1 -13   7 4.53185 4.53261  11
   1 -13   8 4.57986 5.00590  14
  -1 -13  -8-0.89210 4.79861  10
   1  14  -9 126.082 16.2476  18
   1  14  -8 22.4706 10.0251  18
  -1 -14   8 18.2843 5.00038  14
   1  14  -7 29.8593 10.7963  18
  -1 -14   7 48.1428 6.25168  14
  -1  14   6 1.62647 3.14415   5
   1 -14  -6 10.2011 5.43985   9
   1  14  -6 1.70013 3.28651   8
  -1 -14   6 2.52089 3.43574  14
  -1  14   5 44.1397 5.55187   5
   1  14  -5 38.8078 10.0790  18
   1 -14  -5 33.0040 6.86597   9
   1  14  -5 38.7335 5.34246   8
  -1 -14   5 41.1574 5.62560  14
  -1  14   4 2.74633 3.33121   5
   1 -14  -4 7.83949 5.05179   9
   1  14  -4-2.36219 3.26262   8
  -1  14   3 51.8747 5.94935   5
  -1 -14   3 62.9136 5.86736  14
   1 -14  -3 43.2146 7.23172   9
   1  14  -3 55.8533 6.37992   8
  -1  14   2 394.916 17.1371   5
  -1 -14   2 351.695 15.2961  14
   1 -14  -2 381.454 20.3964  11
  -1 -14   2 384.664 19.0938  11
   1 -14  -2 369.093 19.3623   9
   1  14  -1 1.59272 3.25266  17
   1 -14  -1-4.78149 5.14381  11
  -1 -14   1 4.10060 4.64367  11
   1 -14  -1-0.86983 4.41860   9
  -1 -14   1-3.22425 4.33573   9
   1  14  -1-1.14921 2.96285   5
  -1 -14   0 275.271 15.8424  11
   1 -14   0 232.229 15.7316  11
  -1  14   0 229.956 13.0257   8
  -1 -14   0 284.010 15.6977   9
   1  14   0 251.487 12.9928   5
   1 -14   1 159.998 10.0573  14
   1  14   1 160.506 10.1197   5
   1 -14   1 211.623 14.3766  11
  -1 -14  -1 165.618 12.2896   9
  -1  14  -1 197.178 11.3975   8
   1  14   2 39.0448 5.01543   5
   1 -14   2 43.8569 5.79886  14
   1 -14   2 31.8180 6.94045  11
  -1  14  -2 32.9500 5.33836   8
  -1 -14  -2 40.5940 6.62789   9
   1 -14   3 130.160 9.56135  14
   1  14   3 133.439 9.09077   5
   1 -14   3 146.352 11.9113  11
  -1 -14  -3 141.963 11.6010   9
  -1  14  -3 137.686 9.61423   8
   1  14   4 3.81178 3.33713   5
   1 -14   4 1.96010 3.87660  14
   1 -14   4 1.70761 4.71570  11
  -1  14  -4 4.33448 3.50705   8
   1  14   5 178.829 10.8543   5
   1 -14   5 190.211 13.1340  11
   1 -14   5 169.187 11.7801  14
   1 -14   6 25.7334 6.05640  11
  -1 -14  -6 16.2745 5.53873  10
   1 -14   6 18.2899 5.43766  14
  -1 -14  -7 3.58759 4.88999  10
   1 -14   7 3.81857 4.32533  14
   1 -15  -8 51.4340 8.58381   9
   1  15  -8 28.6940 11.5452  18
  -1 -15   7 209.539 12.8121  14
   1  15  -7 191.472 18.2029  18
   1 -15  -7 201.518 15.2200   9
  -1 -15   6 96.0727 8.25151  14
   1  15  -6 73.6986 12.5830  18
   1  15  -6 76.7466 7.47636   8
  -1  15   6 84.2637 7.69200   5
  -1 -15   5 83.7094 7.56990  14
  -1  15   5 89.6930 7.88220   5
   1  15  -5 92.7022 12.6445  18
   1  15  -5 92.7140 8.08566   8
   1 -15  -5 95.5195 10.2100   9
  -1  15   4 62.7949 6.51596   5
   1  15  -4 66.0012 6.90837   8
  -1 -15   4 54.4812 5.94172  14
  -1  15   3 47.0803 5.96836   5
   1 -15  -3 38.0453 7.23571   9
   1  15  -3 33.4484 5.44571   8
  -1 -15   3 45.8398 5.38328  14
   1 -15  -2 6.50890 5.00146   9
   1 -15  -2-4.07621 5.01722  11
   1  15  -1 66.2986 6.93488   5
   1 -15  -1 76.5127 9.36103   9
  -1 -15   1 84.2775 9.23849   9
  -1  15   1 74.0282 7.35631   8
  -1 -15   1 66.8697 8.88567  11
   1 -15  -1 93.1720 10.5874  11
   1  15   0 41.3439 5.69557   5
  -1 -15   0 29.6957 6.46831   9
  -1  15   0 48.2696 6.07265   8
  -1 -15   0 41.1332 7.41942  11
   1  15   1 13.4576 3.81425   5
  -1 -15  -1-0.89351 5.24977  11
   1 -15   1 19.8372 6.91278  11
  -1 -15  -1 9.61817 5.30943   9
  -1  15  -1 16.5317 4.42516   8
   1  15   2-1.71933 3.08270   5
   1 -15   2-0.58110 3.59700  14
   1 -15   2-3.84541 4.65620  11
  -1 -15  -2 6.19260 4.82231   9
  -1  15  -2 5.96554 3.70705   8
   1 -15   3 268.287 14.4061  14
   1 -15   3 270.633 16.8852  11
  -1 -15  -3 296.985 17.4511   9
  -1  15  -3 292.682 14.9538   8
   1  15   3 268.181 13.8056   5
   1 -15   4 221.136 13.1863  14
   1  15   4 212.088 11.9372   5
   1 -15   4 198.870 14.3208  11
  -1  15  -4 197.990 12.1905   8
  -1 -15  -4 221.615 15.2629   9
   1 -15   5 43.4069 7.43472  11
   1  15   5 42.6902 5.64324   5
   1 -15   5 31.5345 6.13249  14
   1  15   6 72.7241 7.40771   5
   1 -15   6 67.9282 8.30394  14
   1  15   7-1.25652 3.51378   5
   1  16  -7 64.9248 13.2645  18
  -1 -16   7 41.9868 6.37898  14
   1  16  -6-4.10027 8.79867  18
   1 -16  -6 1.02265 5.50071   9
  -1 -16   6 2.02303 3.42564  14
  -1 -16   5 22.7643 4.84096  14
   1 -16  -5 24.0488 6.71190   9
   1  16  -5 20.9952 4.56404   8
  -1  16   5 17.3180 4.34094   5
  -1 -16   4 90.6531 7.68120  14
   1 -16  -4 94.1306 10.6221   9
   1  16  -4 82.5172 8.00111   8
  -1  16   4 85.9005 7.91289   5
  -1  16   3 8.82876 4.09995   5
   1 -16  -3-0.98940 4.95092   9
   1  16  -3 6.83934 4.10396   8
   1 -16  -3 3.24106 5.48950  11
   1 -16  -2 24.7586 6.57102   9
   1 -16  -2 13.0381 5.86391  11
   1  16  -1 12.3643 4.36325   5
   1 -16  -1 14.9249 6.29632   9
  -1 -16   1 15.8353 5.95341   9
  -1  16   1 19.7341 4.97847   8
   1 -16  -1 14.1438 6.32166  11
   1  16   0 37.6020 5.73544   5
  -1 -16   0 62.6730 8.48084   9
  -1  16   0 41.4651 6.13817   8
   1 -16   0 55.9613 9.00809  11
   1  16   1 294.821 15.1495   5
  -1  16  -1 333.856 16.4625   8
  -1 -16  -1 302.951 18.1043   9
   1 -16   1 306.107 19.0933  11
  -1 -16  -1 305.898 18.5612  11
   1  16   2 3.67591 3.38663   5
   1 -16   2 14.2043 6.28206  11
  -1 -16  -2 0.94327 4.72085   9
  -1  16  -2 9.12231 4.30168   8
   1  16   3 19.4586 4.52638   5
   1 -16   3 13.6765 5.68649  11
  -1 -16  -3 25.0364 6.66911   9
  -1  16  -3 19.5105 4.83819   8
   1 -16   3 18.1283 5.11300  14
   1  16   4 4.90684 3.47686   5
   1 -16   4 9.36184 5.17254  11
  -1 -16  -4 6.99978 5.38121   9
  -1  16  -4 5.53474 3.87279   8
   1 -16   4 6.94877 4.76249  14
   1 -16   5 50.1188 7.05617  14
  -1 -16  -5 45.7879 8.38922   9
   1  16   5 54.3249 6.75968   5
   1  16   6 11.5270 4.20787   5
   1 -16   6 7.74933 5.04243  14
  -1 -17   6 60.1485 6.96372  14
  -1 -17   5 83.2039 7.82280  14
   1 -17  -5 90.9683 10.8425   9
   1  17  -5 73.5534 7.84535   8
  -1  17   5 85.2973 8.14611   5
   1 -17  -4-2.10171 5.00453   9
   1  17  -4 4.29206 4.51783   8
  -1  17   4 3.93590 3.71481   5
   1 -17  -3 4.19118 5.63637   9
   1  17  -3 2.89063 3.88773   8
   1 -17  -3 1.15110 5.57564  11
   1 -17  -2-3.14843 5.64512   9
   1  17  -2 3.61681 3.89109   8
   1 -17  -2 6.94629 5.96951  11
   1 -17  -1 41.1809 7.93100   9
  -1  17   1 27.8865 5.45760   8
  -1 -17   1 39.6494 7.55551   9
   1  17   0 26.2236 5.33044   5
  -1 -17   0 26.8341 6.78629   9
  -1  17   0 28.3325 5.60675   8
   1 -17   0 22.7098 7.34289  11
   1  17   1 32.2725 5.44666   5
  -1 -17  -1 40.9025 7.84450   9
  -1  17  -1 32.4746 5.98018   8
   1 -17   1 37.4259 8.59005  11
   1  17   2 10.3807 4.37230   5
  -1 -17  -2 7.01819 5.39528   9
  -1  17  -2 3.68664 4.32797   8
  -1 -17  -2 6.18550 5.62193  11
   1 -17   2 3.18771 5.23403  11
   1  17   3 365.153 17.9463   5
  -1 -17  -3 390.529 21.7993   9
  -1  17  -3 416.350 19.4354   8
   1 -17   4 41.9412 6.63091  14
  -1 -17  -4 28.2018 7.53295   9
  -1  17  -4 52.3654 6.81014   8
   1  17   4 46.6041 6.37236   5
   1 -17   5 125.746 10.6087  14
   1  18  -4 25.4803 5.77838   8
   1  18  -3 43.2243 6.72456   8
   1 -18  -3 55.8877 10.1796  11
   1 -18  -2 8.84668 5.95302   9
   1  18  -2 10.5897 4.73584   8
  -1  18   2 8.80406 5.03116   8
   1 -18  -2 7.31239 7.07104  11
  -1  18   1 30.5656 6.00536   8
   1 -18  -1 47.0009 9.51744  11
   1  18   0 23.9113 5.11985   5
  -1 -18   0 34.6500 7.95195   9
  -1  18   0 22.0027 5.83610   8
   1  18   1 151.316 11.1113   5
  -1 -18  -1 170.909 14.2110   9
  -1  18  -1 185.488 12.5919   8
   1 -18   1 181.367 15.2077  11
   1  18   2 182.585 12.2101   5
   1 -18   2 201.178 15.9653  11
  -1  18  -2 219.821 13.7109   8
  -1 -18  -2 196.238 15.4201   9
   1 -19  -1-1.25323 6.64926  11
   1 -19   0 22.1614 7.64337  11
   2   0 -13 10.8644 7.63774  15
  -2   0  13-9.50602 7.23164   2
  -2   0  13-4.58256 7.20401   7
  -2   0  12 180.949 14.0238   2
   2   0 -12 182.978 13.8347  15
  -2   0  12 183.035 13.8536   7
  -2   0  11-3.14726 5.86258   7
  -2   0  11-1.63388 5.64212   2
   2   0 -11-3.00296 6.43636  15
  -2   0  11 0.49673 2.77810  16
   2   0 -10 85.4128 8.90556  15
  -2   0  10 96.3496 6.97536  16
   2   0 -10 94.8515 11.7289   4
  -2   0  10 84.4031 8.75482   7
  -2   0  10 64.5632 8.16188   2
   2   0  -9 4.03098 7.44301   4
  -2   0   9-3.20754 5.55827   7
  -2   0   9-0.66534 5.42446   2
  -2   0   9-1.35403 3.78660  15
   2   0  -9-3.57076 5.41833  15
  -2   0   9-2.08975 2.71630  16
  -2   0   8 91.7962 6.22920  16
  -2   0   8 96.3542 7.09462  15
   2   0  -8 105.458 8.29580  15
   2   0  -8 108.407 10.0733   4
   2   0  -8 105.675 10.0421   2
  -2   0   8 87.1806 8.02072   2
  -2   0   8 117.670 8.92196   7
   2   0  -8 90.4632 9.96500   7
   2   0  -7 6.21766 3.57786  15
  -2   0   7 1.07780 2.89428  15
  -2   0   7-0.33665 1.65748  16
   2   0  -7-2.65891 5.77839   7
   2   0  -7 1.16226 4.26857   4
   2   0  -7-1.25131 1.89079  14
  -2   0   7-1.47165 3.33193   7
  -2   0   7-0.50582 3.43566   2
   2   0  -7 4.73922 4.99343   2
  -2   0   6 78.1880 4.94904  16
  -2   0   6 82.2408 5.58262  15
   2   0  -6 73.9801 5.76564  15
   2   0  -6 78.0074 4.39209  14
   2   0  -6 76.1701 6.70392   4
   2   0  -6 77.7152 6.58297   2
  -2   0   6 71.5470 6.19978   2
  -2   0   6 69.0224 5.96801   7
  -2   0   6 71.1909 3.05082   8
   2   0  -6 73.2276 6.72257   7
  -2   0   5 0.25587 0.95996  16
  -2   0   5 0.26610 2.01044  15
   2   0  -5 1.21133 1.79638  15
   2   0  -5-0.77204 2.53150   4
   2   0  -5-0.36253 1.06325  14
  -2   0   5-1.37584 2.37553   7
   2   0  -5 1.05886 3.04204   7
   2   0  -5-0.36043 3.10651   2
  -2   0   5-2.49856 2.29783   2
   2   0  -4 380.000 13.6638   2
  -2   0   4 326.889 12.3925  16
   2   0  -4 372.529 13.0215  15
   2   0  -4 359.972 10.4124   6
   2   0  -4 371.915 11.9004  14
   2   0  -4 381.262 10.8764  10
   2   0  -4 360.688 13.5648   7
  -2   0   3-0.52965 0.91032  16
   2   0  -3 0.48376 0.86736  16
   2   0  -3 2.11183 1.29290  15
   2   0  -3-0.14769 0.50016  12
   2   0  -3 1.28318 1.84325   7
  -2   0   3 0.28022 0.64972   6
   2   0  -3 0.54856 1.09665   3
   2   0  -2 2166.85 58.3625   1
   2   0  -2 2116.77 57.9270  13
   2   0  -2 2155.73 56.8073  12
  -2   0   2 2079.59 57.9700  13
  -2   0   2 2120.34 56.9176  12
   2   0  -2 2045.24 57.8043  17
  -2   0   2 2086.70 57.8460  16
   2   0  -2 2093.91 57.7273  16
   2   0  -2 2149.87 58.2952   3
  -2   0   2 2073.36 58.2273   3
   2   0  -1-0.59683 1.84718  18
   2   0  -1 0.28230 0.69124  16
  -2   0   1 0.52412 1.36115  17
   2   0  -1 0.87869 1.05307  17
  -2   0   1 0.79954 0.64948  16
  -2   0   1-0.27759 0.78057  12
  -2   0   1 0.52938 1.02027  13
   2   0  -1 0.52592 0.82398  12
   2   0  -1-0.17707 1.26238   1
  -2   0   1 0.63367 1.22925   1
  -2   0   1 0.77569 1.27817  11
   2   0  -1 0.34038 1.02810  11
  -2   0   1-0.16277 1.08673   3
   2   0  -1-0.32864 1.39373   3
  -2   0   0 18.0150 1.93970  17
  -2   0   0 15.9489 1.10074  16
  -2   0   0 17.4912 2.22232  18
   2   0   0 12.3698 0.99221  16
   2   0   0 12.0943 2.20676   1
  -2   0   0 15.2222 2.29475   1
   2   0   0 12.1780 1.68878  11
  -2   0   0 18.1101 2.11873  11
  -2   0   0 9.95554 2.08796   3
   2   0   0 16.7212 2.80750   3
  -2   0   0 14.7080 1.47242  12
  -2   0  -1 0.51372 2.22545   1
  -2   0  -1-0.38302 1.38617  11
   2   0   1 1.05901 1.09256  11
  -2   0  -1 2.10860 1.80538   3
  -2   0  -1-0.14606 0.81690  12
  -2   0  -2 417.358 14.3626  11
  -2   0  -2 419.933 13.4946  12
  -2   0  -3-0.61793 1.10791  12
  -2   0  -3 0.29217 1.69416  11
   2   0   3 0.20336 0.37721  16
  -2   0  -4 418.075 14.3485  12
  -2   0  -4 455.587 16.0207  11
   2   0   4 415.102 18.9293   2
   2   0   4 443.076 16.8060  15
   2   0   4 410.402 12.2055  16
  -2   0  -5-0.53205 1.28848  12
   2   0   5-4.18252 5.94448   2
  -2   0  -5 0.80658 2.44487  11
   2   0   5 0.44937 4.05232  15
   2   0   6 743.603 26.2160  15
  -2   0  -6 718.697 23.2641  12
  -2   0  -6 752.160 25.5204  11
   2   0   6 665.218 28.9782   2
   2   0   6 711.217 29.5572   7
  -2   0  -7-0.65092 2.15371  12
   2   0   7 12.8821 8.65869   7
   2   0   7-1.07309 5.69344  15
   2   0   7-10.1859 8.97580   2
  -2   0  -8 833.898 26.9373  12
   2   0   8 822.760 33.9590   2
   2   0   8 820.706 34.0405   7
   2   0   9-9.86146 8.72028   7
   2   0   9 8.79016 7.91560   2
   2   0  10 89.6957 12.6028   7
   2   0  10 78.4545 11.6488   2
   2   0  11 9.75638 8.83778   2
   2   0  11-6.51406 9.79048   7
  -2  -1  13 1.90636 6.74580   2
  -2   1  13 9.46865 6.54235   2
   2  -1 -13 3.73073 7.47095  15
  -2   1  13 11.7176 7.22016   7
  -2  -1  13 12.0863 6.47635   7
  -2  -1  12 5.33165 6.13757   2
  -2   1  12-0.88356 5.74194   2
   2  -1 -12 10.2779 6.81681  15
   2   1 -12 7.22047 6.57943  15
  -2   1  12-0.84001 6.08054   7
  -2  -1  12 0.86790 6.18797   7
   2  -1 -11 77.4280 9.52950  15
   2   1 -11 72.6672 8.83476  15
  -2   1  11 87.3314 6.75819  16
  -2   1  11 91.2603 9.51912   7
  -2  -1  11 64.7533 8.94503   7
  -2   1  11 83.0128 9.37769   2
  -2  -1  11 85.9889 9.54385   2
  -2   1  10 230.287 11.2466  16
  -2  -1  10 213.529 11.0641  16
   2  -1 -10 219.280 15.9263   4
   2   1 -10 233.785 16.1289   4
   2  -1 -10 213.526 13.5662  15
   2   1 -10 220.739 13.2836  15
  -2  -1  10 229.627 14.0219   2
  -2   1  10 233.673 14.2678   2
  -2   1  10 218.929 13.4226   7
  -2  -1  10 208.836 13.6149   7
  -2  -1   9 113.300 7.25099  16
  -2   1   9 106.204 7.08497  16
  -2  -1   9 109.796 8.11296  15
  -2   1   9 118.116 8.44196  15
   2  -1  -9 97.7006 9.42297  15
   2   1  -9 119.187 9.50088  15
   2  -1  -9 118.404 11.5834   4
   2   1  -9 118.826 12.0113   4
  -2  -1   9 108.656 9.61511   2
  -2   1   9 97.9605 9.22500   2
  -2   1   9 121.940 9.69216   7
  -2  -1   9 92.0317 9.03618   7
  -2   1   8 292.416 12.3145  16
  -2  -1   8 298.346 12.5080  16
  -2  -1   8 293.771 12.9323  15
  -2   1   8 292.846 13.0627  15
   2   1  -8 294.189 11.8424  14
   2  -1  -8 281.821 14.2366  15
   2   1  -8 291.674 13.8566  15
   2  -1  -8 270.900 15.5878   4
   2   1  -8 280.124 15.9716   4
   2   1  -8 281.596 11.6178  11
  -2  -1   8 267.245 14.3692   2
   2   1  -8 270.038 15.2880   2
  -2   1   8 262.497 14.1151   2
   2  -1  -8 321.081 16.1362   2
  -2   1   8 296.347 14.4852   7
  -2  -1   8 303.680 14.7788   7
   2  -1  -8 289.609 15.8783   7
   2   1  -8 298.379 16.3386   7
  -2   1   7 111.478 6.61386  16
  -2  -1   7 133.621 7.08935  16
  -2  -1   7 126.982 7.35416  15
  -2   1   7 119.175 7.47062  15
   2  -1  -7 116.330 5.90122  14
   2  -1  -7 115.772 8.12597  15
   2   1  -7 132.600 8.17852  15
   2   1  -7 123.086 6.50200  14
   2  -1  -7 116.092 9.14866   4
   2   1  -7 114.319 9.15838   4
   2   1  -7 128.460 6.42858  11
  -2   1   7 114.584 8.45459   7
  -2  -1   7 114.625 8.31634   7
   2   1  -7 119.775 9.73207   7
   2  -1  -7 123.055 9.57422   7
  -2   1   7 119.027 8.39399   2
   2   1  -7 126.730 9.56637   2
  -2  -1   7 122.088 8.67235   2
   2  -1  -7 115.199 9.03277   2
  -2  -1   6 421.271 16.6185   2
   2  -1  -6 418.884 16.7911   2
   2   1  -6 427.638 16.9503   2
  -2   1   6 418.607 16.3689   2
  -2   1   6 407.688 14.6811  16
  -2  -1   6 432.665 14.8634  16
  -2  -1   6 430.195 15.0382  15
  -2   1   6 428.213 15.4425  15
   2   1  -6 461.467 14.3634  14
   2  -1  -6 418.327 16.0834  15
   2   1  -6 428.063 15.7024  15
   2  -1  -6 422.079 13.5439  14
   2  -1  -6 430.973 17.1770   4
   2   1  -6 418.132 17.1973   4
   2  -1  -6 366.786 11.2991  12
   2  -1  -6 414.838 13.3409  10
  -2   1   6 427.032 16.1910   7
  -2  -1   6 402.526 16.2503   7
  -2  -1   6 412.505 12.1259   8
   2  -1  -6 405.719 16.6191   7
   2   1  -6 430.354 17.1329   7
  -2  -1   5 40.4297 4.18859   2
  -2   1   5 34.7599 3.06240  16
   2   1  -5 43.1488 3.22162  16
  -2  -1   5 37.3448 3.17477  16
   2   1  -5 39.9953 3.03896  14
   2  -1  -5 36.8885 3.98663  15
   2   1  -5 37.1465 3.61369  15
   2  -1  -5 35.3515 2.59597  14
  -2   1   5 32.8494 3.49404  15
  -2  -1   5 34.2293 3.40263  15
   2   1  -5 34.4284 4.52116   2
   2  -1  -5 32.3685 4.39731   2
   2  -1  -5 33.1220 4.07266   4
   2   1  -5 42.6954 4.55181   4
  -2  -1   5 34.8930 1.70935   5
   2  -1  -5 39.5538 2.58561  10
  -2   1   5 35.7493 3.93763   7
  -2  -1   5 32.5296 3.87370   7
   2  -1  -5 43.7014 4.62497   7
   2   1  -5 34.4771 4.32958   7
   2   1  -4 1062.29 31.3324   2
   2  -1  -4 1060.06 31.3722   2
  -2   1   4 1023.44 30.2543  16
  -2  -1   4 1042.65 30.2655  16
   2   1  -4 1035.45 30.0762  16
   2   1  -4 1004.90 30.2879  15
   2  -1  -4 1052.94 30.8653  15
  -2   1   4 1027.35 30.6189  15
   2   1  -4 1022.22 29.5095  14
   2   1  -4 988.693 28.5736   6
   2  -1  -4 1020.99 28.7737  10
   2  -1  -4 988.141 30.8751   7
   2   1  -4 1011.49 31.1586   7
   2  -1  -3 608.976 17.9511   3
   2   1  -3 568.412 17.7500   3
   2   1  -3 583.057 17.5973  16
  -2   1   3 566.218 17.6692  16
  -2  -1   3 573.953 17.7605  16
   2   1  -3 576.017 17.7038  15
   2  -1  -3 569.337 18.1026  15
   2   1  -3 570.178 16.4710   6
   2   1  -3 548.144 15.6837   5
   2   1  -3 578.838 17.2327  14
   2   1  -3 591.590 17.8829  13
  -2   1   3 581.632 16.3014  10
   2   1  -3 626.208 18.5534   7
  -2  -1   2 610.950 18.4816  16
  -2   1   2 631.204 18.0828  17
   2   1  -2 611.184 18.3166  16
   2   1  -2 600.935 18.8231  17
   2  -1  -2 637.184 17.9396  17
  -2   1   2 605.733 18.3371  16
  -2  -1   2 628.990 18.0063   6
  -2  -1   2 624.654 18.7343  13
  -2   1   2 631.055 17.2424  12
   2  -1  -2 605.501 18.1713  13
   2   1  -2 634.607 18.6848  13
   2   1  -2 605.802 17.6613  12
  -2   1   2 623.838 17.9243   9
   2  -1  -2 605.543 17.4162   8
   2  -1  -2 652.930 18.8700   3
   2   1  -2 620.724 18.7394   3
  -2  -1   2 615.824 18.7463   3
  -2   1   2 580.367 18.6020   3
   2  -1  -2 641.443 18.8699   1
   2   1  -2 617.851 18.7860   1
  -2  -1   1 15.8369 1.89482   1
  -2   1   1 17.1892 1.90770   1
   2   1  -1 12.2960 1.85225   1
   2  -1  -1 14.8817 1.95825   1
   2   1  -1 15.7523 1.88716  17
  -2   1   1 14.4920 1.59583  17
   2   1  -1 18.1738 3.02748  18
   2   1  -1 16.1299 1.45232  16
  -2  -1   1 18.8310 2.17720  17
   2   1  -1 15.4832 1.50263  12
  -2   1   1 15.5852 1.53631  13
   2   1  -1 15.9738 1.10322  11
  -2  -1   1 17.3215 1.87176  13
  -2  -1   1 16.6369 1.62837  12
  -2   1   1 16.5676 2.12742  11
   2  -1  -1 18.2247 2.22808  11
  -2  -1   1 16.1900 1.45765  11
   2   1  -1 18.5147 2.12501   3
  -2   1   1 13.4663 1.71950   3
   2  -1  -1 13.9727 2.05274   3
  -2  -1   1 18.3845 1.88458   3
  -2   1   0 452.270 14.5435   1
   2  -1   0 446.669 14.7871   1
  -2  -1   0 452.501 14.5622   1
   2   1   0 451.861 14.8190   1
   2   1   0 435.653 14.6739   3
   2  -1   0 443.108 14.7249   3
  -2  -1   0 447.546 14.5165  18
  -2  -1   0 452.241 14.0462  17
  -2  -1   0 449.412 13.6902  12
  -2  -1   0 432.549 13.3869  11
   2   1   0 442.234 13.5056  12
  -2   1   0 460.172 14.8510  11
   2  -1   0 425.371 14.3174  11
  -2  -1   0 448.883 14.5577   3
  -2   1   0 436.308 14.5016   3
  -2   1  -1 599.958 19.9002   3
  -2  -1  -1 614.226 19.9425   3
  -2  -1  -1 630.466 18.6155  12
   2  -1   1 600.053 19.2644  11
  -2  -1  -1 639.728 18.7923  11
   2   1   1 627.443 18.4499  12
  -2   1  -1 602.842 19.8927   1
  -2  -1  -1 626.098 19.9804   1
  -2   1  -1 586.466 19.4722  11
   2  -1   2 160.752 7.30316  11
  -2  -1  -2 170.502 6.73272  12
  -2  -1  -2 166.716 7.18162  11
  -2   1  -2 167.778 7.70122  11
  -2  -1  -3 97.1200 4.93043  12
   2  -1   3 101.014 5.75395  11
  -2  -1  -3 95.2292 5.53636  11
  -2   1  -3 99.7566 5.97203  11
   2   1   3 93.5014 6.79421  15
   2   1   4 1323.11 40.4160  15
   2  -1   4 1347.38 40.4009  15
   2  -1   4 1344.05 43.3672   2
   2   1   4 1304.74 43.1308   2
  -2  -1  -4 1307.83 37.8675  12
  -2  -1  -4 1332.82 39.2825  11
  -2   1  -4 1358.68 40.0221  11
   2   1   4 1252.05 35.7235  16
  -2  -1  -5 15.1903 2.39324  12
   2  -1   5 20.2398 7.21313   2
   2   1   5 25.7366 7.29354   2
  -2   1  -5 16.5805 3.59855  11
  -2  -1  -5 16.7511 3.24700  11
   2  -1   5 28.4161 5.28929  15
   2   1   5 25.0500 5.31893  15
   2   1   6 1386.45 47.7655   7
   2  -1   6 1386.54 47.8148   7
   2   1   6 1442.83 44.1384  15
   2  -1   6 1397.79 43.8601  15
  -2  -1  -6 1378.94 40.9380  12
  -2  -1  -6 1411.17 43.0209  11
  -2   1  -6 1373.88 41.0057  12
  -2   1  -6 1372.69 43.4073  11
   2  -1   6 1302.32 47.3831   2
   2   1   6 1393.36 47.7058   2
  -2   1  -7-1.31657 2.01654  12
  -2  -1  -7 0.32588 2.05800  12
   2  -1   7-1.73760 7.68256   7
   2   1   7 8.45790 8.46162   7
   2  -1   7-2.63528 5.61214  15
   2   1   7-8.46505 8.79336   2
   2  -1   7 3.39889 8.53412   2
  -2  -1  -8 104.316 6.59072  12
  -2   1  -8 114.641 6.78279  12
   2  -1   8 87.8469 11.2170   2
   2   1   8 86.6136 11.5219   2
   2  -1   8 108.490 12.2301   7
   2   1   8 82.8106 11.2740   7
   2  -1   9 27.3481 8.73386   2
   2   1   9 22.4053 8.36322   2
   2   1   9 5.83769 8.21899   7
   2  -1   9 12.9699 8.51921   7
   2   1  10 143.056 14.6442   7
   2   1  10 142.109 13.8970   2
   2  -1  10 142.305 14.6549   7
   2  -1  10 125.001 13.3575   2
   2  -1  11 6.50271 8.57207   2
   2   1  11-2.16318 8.39280   2
   2   1  11 3.21379 9.08627   7
   2  -1  11 4.38891 9.05009   7
   2  -2 -13 2.87363 7.03626  15
  -2   2  13-7.52919 7.25556   2
  -2  -2  13-0.95303 6.25033   2
  -2   2  13-6.17313 7.10482   7
  -2  -2  13 2.82538 6.39725   7
  -2  -2  12 169.811 13.5780   2
  -2   2  12 168.608 13.6998   2
  -2   2  12 190.240 13.8294   7
  -2  -2  12 198.769 14.4900   7
   2  -2 -12 197.669 14.5381  15
  -2   2  11 17.4291 6.15592   7
  -2  -2  11 8.92127 5.97214   7
  -2   2  11 10.5086 6.16341   2
  -2  -2  11 17.2034 6.76995   2
   2   2 -11 22.2908 6.67611  15
   2  -2 -11 18.3386 6.55203  15
  -2   2  11 16.8462 3.30573  16
  -2   2  10 383.914 15.7685  16
   2  -2 -10 358.253 18.4083  15
   2   2 -10 365.658 17.6822  15
  -2  -2  10 402.419 15.0687  14
  -2   2  10 360.960 18.4748   2
  -2  -2  10 387.923 18.9618   2
  -2  -2  10 362.649 18.6621   7
  -2   2  10 386.045 18.3875   7
  -2  -2   9 315.042 13.5773  16
  -2   2   9 335.278 13.7638  16
  -2  -2   9 314.969 13.8224  15
   2  -2  -9 309.304 16.1219  15
   2   2  -9 312.247 15.2064  15
   2  -2  -9 308.112 17.9033   4
   2   2  -9 340.526 18.7194   4
  -2  -2   9 310.632 12.7554  14
  -2   2   9 300.229 15.4836   7
  -2  -2   9 299.696 16.0297   7
   2  -2  -9 294.605 17.4734   7
  -2  -2   9 317.294 16.3031   2
  -2   2   9 270.051 15.5094   2
  -2  -2   8 192.131 11.6736   2
  -2   2   8 206.093 12.0485   2
   2  -2  -8 210.936 13.1718   2
   2   2  -8 207.624 13.0998   2
  -2   2   8 202.994 9.74011  16
  -2  -2   8 211.278 10.0145  16
  -2   2   8 200.072 10.6752  15
  -2  -2   8 200.502 10.0358  15
   2  -2  -8 218.144 12.2431  15
   2   2  -8 196.007 11.0067  15
   2  -2  -8 188.469 12.9496   4
   2   2  -8 193.838 13.0180   4
  -2  -2   8 218.108 9.50786  14
   2  -2  -8 190.756 8.85077  10
  -2   2   8 211.166 11.7682   7
  -2  -2   8 209.793 12.0843   7
   2  -2  -8 197.048 13.1201   7
   2   2  -8 194.519 13.4472   7
   2   2  -7 98.6728 8.55082   2
  -2   2   7 105.771 7.84388   2
  -2  -2   7 116.998 8.17764   2
   2  -2  -7 102.770 8.75210   2
  -2  -2   7 87.6079 5.87890  16
  -2   2   7 100.189 6.17651  16
   2   2  -7 101.962 5.90939  16
  -2  -2   7 104.198 6.58988  15
  -2   2   7 101.495 6.99932  15
   2  -2  -7 102.590 7.78524  15
   2   2  -7 102.792 7.08325  15
   2   2  -7 111.948 6.36225  14
   2  -2  -7 105.813 8.78295   4
   2   2  -7 92.5997 8.26651   4
   2   2  -7 98.0267 5.67887  11
  -2  -2   7 96.7340 5.77712  14
   2  -2  -7 100.524 5.57605  10
  -2   2   7 98.5631 7.67905   7
  -2  -2   7 88.7680 7.65420   7
   2   2  -7 108.874 9.44754   7
   2  -2  -7 111.919 9.04265   7
   2   2  -6 235.540 11.6213   2
  -2   2   6 230.689 11.1048   2
  -2  -2   6 237.857 11.2856   2
   2  -2  -6 244.755 11.7343   2
  -2  -2   6 220.355 9.68119  16
  -2   2   6 213.463 9.49538  16
   2   2  -6 236.161 9.47764  16
  -2  -2   6 228.048 9.66105  15
  -2   2   6 209.481 9.93319  15
   2  -2  -6 225.245 10.9197  15
   2  -2  -6 217.760 8.21743  14
   2   2  -6 227.175 9.32431  14
   2   2  -6 245.896 10.4301  15
   2  -2  -6 211.758 11.4467   4
   2   2  -6 212.130 11.4475   4
  -2  -2   6 213.676 7.47934   5
   2   2  -6 209.664 8.68358  11
  -2  -2   6 249.353 9.49708  14
   2  -2  -6 215.711 8.63583  10
  -2  -2   6 228.113 10.9412   7
   2  -2  -6 224.106 11.3849   7
   2   2  -6 226.562 11.7630   7
  -2   2   6 228.080 10.8207   7
   2  -2  -5-1.44097 2.95465   2
   2   2  -5 4.73369 3.42325   2
   2   2  -5 4.22806 1.63645  16
   2  -2  -5-0.67814 2.50916  15
   2   2  -5 1.07263 1.97050  15
  -2  -2   5 1.42213 1.87548  15
  -2   2   5 0.88520 2.16807  15
  -2  -2   5 2.16989 1.42005  16
   2  -2  -5 1.54266 2.38789   4
   2   2  -5-0.78137 2.60885   4
  -2  -2   5 2.03585 0.84384   5
   2  -2  -5 2.51985 1.05822  14
   2   2  -5 2.66621 1.43142  14
  -2  -2   5 0.69308 1.06299  14
   2   2  -5 3.08345 1.39768  11
   2  -2  -5 3.95014 1.40267  10
  -2   2   5 1.61841 2.19923   7
   2   2  -5 6.71952 3.46261   7
  -2  -2   5 1.81093 2.31018   7
   2  -2  -5 6.39361 2.99099   7
   2  -2  -4 801.099 24.9202   2
   2   2  -4 810.556 25.1166   2
  -2  -2   4 770.867 24.0847  16
   2   2  -4 780.069 23.7716  16
   2  -2  -4 768.305 24.6372  15
  -2   2   4 798.337 24.5979  15
   2   2  -4 773.091 23.5153  14
   2   2  -4 796.372 23.7802  15
  -2   2   4 772.012 21.7699   5
   2   2  -4 754.058 22.3902  11
   2  -2  -4 782.559 23.1808  10
   2  -2  -4 811.788 24.6431   7
   2   2  -4 795.313 25.1969   7
   2   2  -4 809.265 21.9838   8
   2   2  -3 6.04569 1.39872   3
   2  -2  -3 4.19211 1.31483   3
   2  -2  -3 3.82318 0.97319  17
   2   2  -3 5.62301 1.38256  15
   2  -2  -3 4.51198 1.62509  15
   2   2  -3 3.95742 1.20399  16
   2   2  -3 3.97148 0.76493   5
   2   2  -3 5.12211 1.27191   6
   2   2  -3 5.69277 1.22489  14
   2   2  -3 4.08491 1.35967  13
  -2   2   3 4.54622 1.12309  10
   2   2  -3 5.21735 0.82833  11
   2  -2  -3 4.54650 1.35367   9
   2   2  -3 2.32094 2.00395   7
  -2   2   3 4.28140 0.83551   8
   2   2  -2 5077.04 136.697  17
  -2   2   2 4972.72 134.862  17
   2   2  -2 4820.94 135.715  16
  -2  -2   2 5080.50 135.927   6
   2   2  -2 5187.55 136.303  13
  -2  -2   2 5233.52 136.332  13
   2  -2  -2 4978.18 135.253  13
   2  -2  -2 4963.44 135.112   8
   2  -2  -2 5073.86 136.206   9
  -2   2   2 5028.45 135.914   9
  -2  -2   2 5275.29 136.162   3
   2   2  -2 5188.42 136.145   3
   2  -2  -2 5127.13 136.080   3
  -2   2   2 5061.63 136.103   3
   2   2  -2 5111.31 136.216   1
   2  -2  -2 5022.40 136.129   1
  -2  -2   1 715.450 21.0136   3
   2  -2  -1 704.640 21.0744   3
  -2   2   1 675.962 20.9019   3
   2   2  -1 714.664 21.1510   3
   2   2  -1 722.887 21.3359  17
   2   2  -1 672.498 22.7062  18
  -2  -2   1 718.074 21.5088  17
  -2  -2   1 750.475 22.8327  18
   2  -2  -1 719.418 21.2476   1
  -2   2   1 709.033 20.9417   1
  -2  -2   1 719.257 20.9704   1
   2   2  -1 709.343 21.2518   1
  -2   2   1 701.208 20.0087  13
  -2  -2   1 692.564 21.1100  13
   2   2  -1 701.578 20.5149  12
  -2   2   1 662.740 21.7152  11
   2  -2  -1 723.549 22.1778  11
   2  -2  -1 700.395 20.5412   8
  -2   2   0 204.561 7.83409   1
   2   2   0 193.422 8.03992   1
   2  -2   0 196.420 8.04143   1
  -2  -2   0 192.245 7.72872   1
   2  -2   0 194.674 8.04617   3
   2   2   0 197.310 8.02387   3
   2   2   0 194.113 7.42090  17
  -2  -2   0 201.576 8.67632  18
  -2  -2   0 207.906 7.72033  17
  -2  -2   0 210.531 7.43270  12
   2   2   0 195.079 7.08852  12
  -2   2   0 206.492 8.81308  11
   2  -2   0 187.612 8.28062  11
  -2   2   0 193.788 7.77206   3
  -2  -2   0 188.865 7.70122   3
  -2  -2  -1 38.3256 2.99687  17
  -2  -2  -1 40.0577 3.56256   3
  -2   2  -1 42.7005 3.60402   3
  -2  -2  -1 45.9957 3.00304  12
   2   2   1 36.3058 2.63592  12
  -2  -2  -1 44.0636 3.88816   1
  -2   2  -1 42.5907 3.79939   1
  -2   2  -1 38.7286 3.69227  11
   2  -2   1 43.6778 3.52891  11
  -2   2  -2 176.412 8.43041  11
  -2  -2  -2 195.800 7.44939  12
   2  -2   2 166.341 8.01042  11
   2   2   2 179.393 7.04923  12
   2   2   3 20.3386 3.90788  15
  -2  -2  -3 15.7981 2.05890  12
   2   2   3 18.5478 2.10841  12
   2  -2   3 15.9988 2.54260  11
  -2   2  -3 21.5533 3.32395  11
  -2   2  -3 17.3045 1.10379  16
   2  -2   4 146.272 8.16163  11
  -2  -2  -4 169.638 7.42838  12
   2   2   4 155.746 11.2169   2
   2  -2   4 163.824 11.4536   2
  -2   2  -4 163.670 8.82251  11
   2   2   4 168.390 9.40489  15
   2  -2   4 180.303 9.48070  15
  -2  -2  -5 18.7373 2.70436  12
   2  -2   5 11.1642 6.42230   2
   2   2   5 14.5333 7.42846   2
  -2  -2  -5 12.5773 2.89290  11
  -2   2  -5 9.55369 3.13687  11
   2  -2   5 9.16041 4.47963  15
   2   2   5 16.5138 5.06287  15
   2  -2   6 867.827 33.8939   7
   2   2   6 898.168 33.4640   7
   2   2   6 935.154 30.4126  15
   2  -2   6 842.399 29.5307  15
  -2  -2  -6 822.464 26.8624  12
  -2  -2  -6 890.200 28.6483  11
  -2   2  -6 880.884 29.7353  11
   2  -2   6 759.582 32.5216   2
   2   2   6 844.165 33.1893   2
  -2  -2  -7 8.00881 2.64545  12
   2  -2   7 7.02722 8.78972   7
   2   2   7 9.15644 8.36209   7
   2  -2   7-0.51705 6.01641  15
   2   2   7 4.21163 8.62407   2
   2  -2   7 13.5884 9.38158   2
  -2  -2  -8 508.441 18.1168  12
  -2   2  -8 499.802 17.9547  12
   2   2   8 516.069 24.7163   2
   2  -2   8 474.457 24.0973   2
   2   2   8 460.951 23.5346   7
   2  -2   8 468.435 24.2365   7
   2  -2   9 17.1668 9.17060   7
   2   2   9 17.2354 8.90160   7
   2  -2   9 35.1219 9.31190   2
   2   2   9 24.2168 8.63032   2
   2  -2  10 78.6637 12.5224   7
   2   2  10 74.9424 12.1451   7
   2   2  10 74.8282 11.2777   2
   2  -2  10 73.1851 11.4119   2
   2  -2  11-3.24668 7.94931   2
   2   2  11 12.9366 9.29155   2
   2   2  11-7.38036 9.91070   7
   2  -2  11-1.10630 9.38326   7
  -2  -3  13 5.70221 7.03469   2
  -2   3  13 13.0552 7.37876   2
  -2   3  13 7.73917 6.41106   7
  -2  -3  13 7.60946 7.14049   7
   2  -3 -13 8.80502 7.78922  15
  -2   3  12 8.70120 6.11015   2
  -2  -3  12 8.86347 6.22399   2
  -2   3  12 5.62131 5.63962   7
  -2  -3  12 9.79009 6.58741   7
   2  -3 -12 3.60354 7.26018  15
  -2   3  11 14.5465 3.37268  16
   2  -3 -11 29.4012 7.34032  15
  -2   3  11 16.8480 6.43674   2
  -2  -3  11 13.8783 6.18090   2
  -2   3  11 7.40420 5.49254   7
  -2  -3  11 17.2256 6.62029   7
  -2   3  10 8.39072 2.71576  16
   2  -3 -10 12.5481 6.16319  15
   2   3 -10 10.0657 5.34591  15
  -2  -3  10 9.49103 2.71889  14
  -2   3  10 16.7771 5.54128   7
  -2  -3  10 1.49501 5.33561   7
  -2   3  10 13.1252 5.55293   2
  -2  -3  10 17.8090 5.49616   2
  -2   3   9 148.238 8.33762  16
   2  -3  -9 148.155 10.9064  15
   2   3  -9 138.012 9.72552  15
   2  -3  -9 150.449 12.5612   4
   2   3  -9 150.407 12.8438   4
  -2  -3   9 127.130 7.61756  14
   2  -3  -9 122.867 12.0777   7
  -2  -3   9 110.132 9.85509   7
  -2   3   9 126.540 9.84182   7
  -2   3   9 133.848 10.3196   2
  -2  -3   9 128.161 10.3092   2
   2   3  -8 411.421 19.1479   2
   2  -3  -8 446.045 19.6226   2
  -2   3   8 415.259 18.3464   2
  -2  -3   8 416.871 18.3130   2
  -2   3   8 446.679 16.3231  16
   2   3  -8 430.467 15.5393  16
  -2  -3   8 411.962 15.9331  15
   2  -3  -8 413.209 18.2941  15
   2   3  -8 389.376 16.7592  15
  -2   3   8 430.634 17.2067  15
   2  -3  -8 419.580 19.8252   4
   2   3  -8 380.884 19.3770   4
  -2  -3   8 422.612 15.7572  14
   2  -3  -8 419.049 15.4597  10
  -2   3   8 401.527 17.5531   7
  -2  -3   8 376.038 18.1528   7
   2  -3  -8 406.758 19.1644   7
   2   3  -8 425.429 20.0424   7
   2  -3  -7 270.658 13.6489   2
   2   3  -7 267.462 13.7873   2
  -2   3   7 272.897 13.0584   2
  -2  -3   7 246.948 12.6940   2
   2   3  -7 247.784 10.5537  16
  -2   3   7 270.676 11.2695  16
  -2   3   7 250.255 11.7548  15
   2  -3  -7 246.031 12.6227  15
   2   3  -7 243.258 11.3485  15
   2   3  -7 269.621 11.0422  14
  -2  -3   7 250.114 10.7499  15
   2  -3  -7 243.435 13.4854   4
   2   3  -7 255.139 13.8964   4
  -2  -3   7 243.652 10.6362  14
   2   3  -7 255.012 10.4823  11
   2  -3  -7 236.315 10.1929  10
  -2   3   7 233.970 11.9210   7
  -2  -3   7 243.372 13.0211   7
   2   3  -7 267.108 14.4003   7
   2  -3  -7 268.183 13.6290   7
   2  -3  -6 1264.39 40.4449   2
  -2   3   6 1334.86 40.3892   2
  -2  -3   6 1296.52 40.2408   2
   2   3  -6 1303.66 40.6783   2
   2   3  -6 1317.84 38.1076  16
  -2  -3   6 1318.19 38.0326  15
   2  -3  -6 1304.63 36.3501  14
   2  -3  -6 1271.36 40.1525  15
   2   3  -6 1267.45 38.6210  15
  -2   3   6 1252.93 39.0791  15
   2   3  -6 1287.79 38.3181  14
   2   3  -6 1299.70 41.0817   4
   2  -3  -6 1298.22 40.9272   4
  -2  -3   6 1265.87 36.0683   5
  -2  -3   6 1268.47 38.2459  14
   2  -3  -6 1288.76 37.7650  10
   2   3  -6 1246.70 37.4518  11
  -2   3   6 1329.19 39.7218   7
   2  -3  -6 1262.44 40.0717   7
   2   3  -6 1295.03 41.0376   7
  -2  -3   6 1292.00 40.6707   7
  -2  -3   5 1.11226 2.47542   7
   2  -3  -5 3.95386 2.92830   7
   2   3  -5 3.84158 3.11358   7
   2  -3  -5 1.43124 2.47141  15
   2   3  -5 1.74435 2.09074  15
  -2  -3   5 0.22257 1.85704  15
   2   3  -5-0.24125 1.18827  16
  -2   3   5 1.54547 2.31948  15
   2   3  -5 1.96794 2.69611   4
  -2  -3   5 1.88346 1.05698   5
  -2   3   5 1.35561 0.96911   5
   2  -3  -5 1.54849 2.53896   4
   2   3  -5 1.23117 1.80898  14
  -2  -3   5-0.26014 1.30174  14
   2   3  -5 3.51794 1.48707  11
   2  -3  -5 3.27664 1.56288  10
   2   3  -5-0.36656 3.24152   2
   2  -3  -5-2.89071 3.25867   2
   2   3  -4 178.029 8.27977   2
   2   3  -4 168.443 7.35095   3
   2  -3  -4 162.231 7.03625   3
   2  -3  -4 160.302 7.78988   2
   2   3  -4 160.696 7.00995  16
   2  -3  -4 147.417 7.51404  15
   2   3  -4 162.236 6.79107  15
   2   3  -4 176.354 7.12824  14
  -2   3   4 161.388 7.62130  15
   2   3  -4 167.080 8.12483   4
  -2   3   4 145.366 5.62895   5
   2   3  -4 167.038 7.26257  13
  -2  -3   4 175.547 7.18630  14
  -2   3   4 153.730 6.26796  10
   2  -3  -4 155.138 6.80471  10
   2   3  -4 157.395 6.21199  11
   2  -3  -4 159.327 7.44061   7
   2   3  -4 164.286 8.16184   7
   2   3  -4 154.551 5.86362   8
   2   3  -3 113.568 5.80062   2
   2   3  -3 123.072 5.33108   3
   2  -3  -3 108.361 5.05721   3
   2   3  -3 117.766 5.24540  16
   2  -3  -3 100.760 3.53463  17
   2  -3  -3 101.194 5.53684  15
   2   3  -3 112.958 4.77949  15
   2   3  -3 108.478 5.02072  14
   2   3  -3 126.195 5.39166   6
   2   3  -3 108.500 4.34740   5
   2   3  -3 106.958 5.31953  13
   2   3  -3 117.049 4.31853  11
  -2   3   3 112.389 5.04616  10
   2   3  -3 111.644 5.80651   7
  -2   3   3 106.704 4.45191   8
   2  -3  -3 104.187 5.41341   9
   2  -3  -2 1691.38 47.7757   3
  -2  -3   2 1818.64 47.9018   3
   2   3  -2 1792.10 47.9118   3
  -2   3   2 1674.80 47.7639   3
   2   3  -2 1746.54 51.3636  18
  -2   3   2 1601.25 46.2543  17
  -2  -3   2 1729.03 48.4290   6
   2   3  -2 1798.64 47.9656   6
   2  -3  -2 1694.06 47.2449   5
   2   3  -2 1723.06 47.9357   1
   2  -3  -2 1699.70 47.8444   1
   2   3  -2 1742.08 47.6406  14
   2  -3  -2 1641.87 46.7870  13
   2   3  -2 1770.20 48.3440  13
  -2  -3   2 1727.03 48.2670  13
   2   3  -2 1768.68 46.5170  10
  -2  -3   2 1801.50 47.0852   9
  -2   3   2 1731.91 48.4615   9
  -2   3   2 1723.39 47.4333   8
   2  -3  -2 1655.67 48.6234   9
  -2   3   1 5679.71 154.214   3
   2   3  -1 5783.37 154.435   3
  -2  -3   1 5782.53 154.285   3
   2  -3  -1 5736.65 154.388   3
  -2  -3   1 5984.16 157.203  18
   2   3  -1 5839.58 157.480  18
   2   3  -1 5816.00 155.084  17
  -2  -3   1 5916.58 154.828   6
  -2   3   1 5733.69 154.166   1
   2   3  -1 5857.02 154.615   1
  -2  -3   1 5753.79 154.231   1
   2  -3  -1 5726.40 154.523   1
  -2  -3   1 5723.24 154.787  13
  -2   3   1 5600.34 152.879  13
   2  -3  -1 5680.82 156.323  11
  -2  -3   1 5826.54 153.564  10
  -2   3   1 5783.31 155.420   9
   2  -3  -1 5641.20 154.215   8
  -2   3   0 805.628 25.0836   3
  -2  -3   0 843.282 25.1977   3
  -2   3   0 833.815 25.1232   1
  -2  -3   0 886.583 25.3000   1
   2   3   0 816.805 25.5453   1
   2  -3   0 816.357 25.4479   1
   2   3   0 866.591 25.5001   3
   2  -3   0 857.364 25.4255   3
  -2  -3   0 865.644 27.2081  18
  -2  -3   0 889.379 25.4844  17
   2   3   0 825.781 25.1796  17
   2   3   0 859.506 24.7214  12
   2  -3   0 841.597 26.8481  11
  -2   3   0 869.987 27.0185  11
   2  -3   0 821.574 25.0084   8
  -2   3  -1 237.602 8.66825  18
  -2  -3  -1 264.897 9.53956  17
  -2  -3  -1 244.703 10.0020   3
  -2   3  -1 255.143 10.0245   3
   2   3   1 261.442 9.09926  12
  -2   3  -1 256.096 11.0319  11
   2  -3   1 234.202 10.4413  11
  -2  -3  -1 258.629 10.0904   1
  -2   3  -1 259.866 10.0439   1
  -2  -3  -2 917.399 26.4349  12
   2   3   2 876.039 25.7447  12
   2   3   2 860.111 27.6263  15
   2  -3   2 851.367 27.7498  11
  -2   3  -2 834.481 28.0516  11
  -2  -3  -2 866.453 26.1759  17
  -2   3  -3 155.890 8.49418  11
   2   3   3 154.688 6.63399  12
  -2  -3  -3 168.101 7.27338  12
   2  -3   3 145.736 7.98616  11
   2   3   3 138.123 8.24100  15
  -2   3  -4 339.964 10.6987  16
   2   3   4 386.947 15.1889  15
   2  -3   4 351.147 14.5355  15
   2  -3   4 341.760 14.1518  11
   2   3   4 345.724 12.2998  12
  -2  -3  -4 365.646 13.0314  12
  -2   3  -4 360.294 14.8566  11
   2  -3   4 337.268 16.8266   2
   2   3   4 368.854 17.1836   2
   2  -3   5 49.6712 5.95045  15
   2   3   5 49.7327 6.34078  15
   2  -3   5 60.0752 8.89818   7
   2  -3   5 47.2738 4.78320  11
  -2  -3  -5 46.5823 3.93768  12
  -2   3  -5 44.7638 5.31311  11
   2  -3   5 50.9758 8.33314   2
   2   3   5 37.8060 7.90778   2
   2  -3   6 988.962 37.6295   7
   2   3   6 990.357 37.0901   7
  -2  -3  -6 1012.46 31.2309  12
   2   3   6 1032.21 34.0056  15
   2  -3   6 1038.38 33.5110  15
  -2   3  -6 1019.15 34.1605  11
   2   3   6 962.383 37.0761   2
   2  -3   6 942.306 36.9952   2
   2  -3   7 238.968 12.8811  15
  -2  -3  -7 211.298 10.0176  12
   2  -3   7 207.695 15.5548   2
   2   3   7 243.064 16.2563   2
   2   3   7 235.647 15.9856   7
   2  -3   7 217.578 16.0765   7
   2  -3   8 11.8481 7.43395   2
   2   3   8 15.2813 7.75104   2
   2  -3   8-0.95440 7.45728   7
   2   3   8 11.4201 8.58333   7
   2  -3   9 9.72701 7.64608   2
   2   3   9 13.4457 8.19094   2
   2  -3   9-1.01746 8.86201   7
   2   3   9-1.88125 8.10808   7
   2   3  10 150.846 14.7723   7
   2   3  10 146.597 14.1036   2
   2  -3  10 144.814 14.8991   7
   2  -3  10 129.810 13.4829   2
   2   3  11 9.29742 8.85911   7
   2  -3  11 10.0238 9.80144   7
   2   3  11 8.55448 8.82206   2
   2  -3  11 4.32035 8.65123   2
  -2  -4  13 11.5151 7.59948   7
  -2  -4  13 17.0495 7.40742   2
  -2   4  13 10.1399 6.87932   2
   2  -4 -13 22.9517 8.74407  15
  -2  -4  12 151.105 12.7768   2
  -2   4  12 174.605 13.2405   2
  -2   4  12 167.994 12.6433   7
  -2  -4  12 140.080 12.5901   7
   2  -4 -12 188.994 14.3109  15
  -2   4  11 129.776 8.39643  16
   2  -4 -11 150.597 12.5831  15
  -2   4  11 107.090 10.5556   2
  -2  -4  11 111.448 10.8950   2
  -2   4  11 140.311 11.3297   7
  -2  -4  11 103.707 10.8471   7
  -2   4  10 95.7841 6.98537  16
   2  -4 -10 99.1353 9.69746  15
  -2  -4  10 95.2275 6.82760  14
  -2   4  10 87.9664 9.26870   2
  -2  -4  10 91.5367 9.24693   2
  -2   4  10 85.4406 8.44697   7
  -2  -4  10 80.1235 8.96847   7
  -2   4   9 330.094 14.7129  16
   2   4  -9 407.437 14.8592  16
   2  -4  -9 370.043 18.1505  15
   2  -4  -9 344.546 19.1529   4
   2   4  -9 354.123 19.5536   4
  -2  -4   9 378.690 15.0331  14
   2  -4  -9 339.860 18.6433   7
  -2   4   9 380.027 17.1688   7
  -2  -4   9 348.869 17.6449   7
  -2  -4   9 348.665 17.5879   2
  -2   4   9 346.969 17.2648   2
  -2   4   8 176.624 11.1622   2
   2   4  -8 175.300 12.8101   2
   2  -4  -8 186.624 12.9305   2
  -2  -4   8 177.508 11.2058   2
   2   4  -8 183.238 8.88787  16
  -2   4   8 167.887 10.0805  15
   2  -4  -8 195.531 11.8183  15
   2   4  -8 176.212 9.98012  15
   2  -4  -8 172.137 12.8687   4
   2   4  -8 177.504 12.8697   4
  -2  -4   8 187.644 9.34050  14
   2  -4  -8 184.459 9.23181  10
  -2   4   8 178.119 10.6457   7
  -2  -4   8 194.722 11.9708   7
   2   4  -8 188.926 13.5413   7
   2  -4  -8 169.986 12.6851   7
   2   4  -7 18.1975 6.11990   2
  -2  -4   7 6.03667 3.88395   2
  -2   4   7 7.87563 3.97124   2
   2  -4  -7 17.0308 5.88197   2
   2   4  -7 9.89726 2.29828  16
  -2   4   7 10.3358 3.92636  15
   2  -4  -7 8.33368 4.17622  15
   2   4  -7 9.62331 3.81427  15
  -2  -4   7 5.32742 2.88687  15
   2  -4  -7 7.58039 5.88163   7
   2  -4  -7 9.35019 4.98804   4
   2   4  -7 10.3465 6.49290   7
   2   4  -7 4.71244 4.89104   4
  -2  -4   7 6.06408 2.24073  14
   2   4  -7 7.71062 3.22795  14
   2  -4  -7 9.50639 2.42998  10
  -2   4   7 4.35414 3.36342   7
  -2  -4   7 7.90153 4.32504   7
   2  -4  -6 150.871 9.30434   2
  -2   4   6 142.432 8.67549   2
  -2  -4   6 159.714 9.18700   2
   2   4  -6 165.960 9.66089   2
   2   4  -6 150.037 7.37383  16
   2  -4  -6 147.302 9.02532  15
   2   4  -6 161.537 7.84659  15
   2   4  -6 176.378 8.20937  14
  -2   4   6 144.744 8.34519  15
  -2  -4   6 174.456 7.62576  15
   2   4  -6 156.689 9.57986   4
   2  -4  -6 144.539 9.35902   4
  -2  -4   6 155.401 6.35992   5
  -2  -4   6 161.947 7.93459  14
   2  -4  -6 143.323 7.44019  10
   2   4  -6 156.088 7.53582  11
  -2   4   6 139.772 8.05248   7
  -2  -4   6 157.509 9.23056   7
   2  -4  -6 163.669 9.53424   7
   2   4  -6 163.396 10.2803   7
   2  -4  -5 98.5881 6.92571   2
   2   4  -5 102.294 6.87685   2
   2   4  -5 107.905 5.59401  16
  -2   4   5 102.098 6.32332  15
   2  -4  -5 95.2276 6.54367  15
   2   4  -5 104.789 5.52102  15
   2   4  -5 105.458 5.81281  14
   2   4  -5 100.277 6.93661   4
  -2   4   5 94.3863 4.50954   5
  -2  -4   5 109.955 4.68480   5
   2  -4  -5 98.6396 6.96924   4
  -2  -4   5 115.488 6.02413  14
  -2   4   5 92.9411 3.40072  12
   2  -4  -5 101.101 5.71069  10
   2   4  -5 101.839 5.46934  11
  -2  -4   5 115.772 6.99639   7
   2   4  -5 104.286 4.85873   8
   2  -4  -5 97.4927 6.31025   7
   2   4  -5 109.553 7.28539   7
   2  -4  -4 282.754 10.2284   3
   2   4  -4 273.278 11.1349   2
   2   4  -4 286.784 10.3485   3
   2  -4  -4 266.180 10.9944   2
   2   4  -4 276.945 10.2922  16
   2  -4  -4 276.079 11.2316  15
   2   4  -4 268.048 9.57856  15
   2   4  -4 263.664 10.3129  14
   2  -4  -4 274.677 11.1511   4
  -2   4   4 267.968 8.46606   6
  -2   4   4 275.332 9.34660   5
   2   4  -4 266.486 11.1089   4
   2   4  -4 280.709 10.6097  13
  -2  -4   4 264.675 10.4657  14
  -2  -4   4 272.573 9.00264  11
  -2   4   4 276.469 9.95684  10
   2  -4  -4 275.596 10.5775  10
   2   4  -4 262.550 9.77425  11
   2  -4  -4 292.864 10.7875   7
   2   4  -4 283.082 11.5074   7
   2   4  -4 250.366 9.40740   9
   2   4  -3 7.02436 1.55571   3
   2  -4  -3 5.47039 1.37386   3
   2   4  -3 5.72036 1.95521   2
   2  -4  -3 3.53969 1.73223   2
   2   4  -3 3.14267 3.10948  18
   2   4  -3 3.25170 1.19624  15
   2  -4  -3 6.01537 1.93896  15
   2   4  -3 6.33268 1.27797   5
   2   4  -3 7.05003 1.93113   6
   2   4  -3 6.81655 1.51984  14
   2   4  -3 5.80826 1.57288  13
  -2  -4   3 2.61447 1.19415  14
   2   4  -3 5.07699 1.32947  11
  -2  -4   3 2.97646 0.97790  11
  -2   4   3 3.84399 1.48014  10
   2  -4  -3 5.23991 1.65951   7
   2  -4  -3 4.18041 1.78147   9
   2   4  -3 5.54523 2.19870   7
   2   4  -2 77.6915 3.97141   3
   2  -4  -2 74.4598 3.88552   3
  -2  -4   2 82.1667 3.97659   3
  -2   4   2 69.1296 3.75517   3
   2   4  -2 81.5799 4.08232   1
   2  -4  -2 69.3514 3.80854   1
   2   4  -2 81.6614 6.69252  18
   2   4  -2 66.0114 3.82680  14
   2   4  -2 84.8309 4.50870   6
   2  -4  -2 69.7631 3.80085   5
   2   4  -2 70.0924 4.20355  13
  -2  -4   2 82.2229 4.38675  13
  -2  -4   2 76.2805 3.56138  11
   2   4  -2 82.1888 3.57566  10
  -2  -4   2 75.8086 3.91409   9
  -2   4   2 67.5472 3.87665   8
   2  -4  -2 72.1640 4.75820   9
  -2   4   1 54.8346 3.11705   3
   2  -4  -1 44.9056 3.05405   3
  -2  -4   1 49.1213 2.98397   3
   2   4  -1 47.2509 3.22801   3
   2   4  -1 56.8944 5.38705  18
   2   4  -1 52.7009 3.82180  17
  -2  -4   1 41.9403 4.99383  18
   2   4  -1 45.6916 3.26213   6
  -2  -4   1 39.2094 3.33507   6
   2  -4  -1 52.5542 3.25665   1
  -2  -4   1 48.7643 2.95128   1
  -2   4   1 50.2989 2.93771   1
   2   4  -1 45.7221 3.17091   1
  -2  -4   1 47.6397 3.37739  13
   2   4  -1 44.9980 2.79289  14
   2  -4  -1 51.5884 4.42454  11
   2   4  -1 44.2917 2.59420  10
  -2  -4   1 45.0395 2.92637  10
  -2   4   1 49.0156 3.30585   8
   2  -4  -1 55.7023 3.45364   8
  -2   4   1 54.3812 4.14763   9
  -2   4   0 456.793 15.0695   3
  -2  -4   0 495.145 15.3414   3
   2   4   0 478.596 15.7563   1
   2  -4   0 452.779 15.4859   1
  -2  -4   0 486.593 15.2645   1
  -2   4   0 472.849 15.1252   1
  -2  -4   0 465.778 15.7593   6
   2   4   0 485.504 15.5780   3
   2  -4   0 458.277 15.3863   3
  -2  -4   0 479.717 17.9407  18
   2   4   0 477.065 15.6615  17
  -2  -4   0 511.310 16.0445  17
   2  -4   0 463.157 14.9251  18
   2  -4   0 452.104 17.2602  11
  -2   4   0 487.923 17.4386  11
  -2  -4   0 444.149 14.8362  10
   2  -4   0 466.025 15.5097   8
  -2  -4  -1 270.692 10.5653   1
  -2   4  -1 267.930 10.3936   1
  -2  -4  -1 286.950 10.3877  17
  -2   4  -1 260.362 9.95619  18
   2   4   1 279.354 10.1478  17
  -2  -4  -1 270.622 10.5526   3
  -2   4  -1 266.100 10.4551   3
   2   4   1 271.788 9.79998  12
   2  -4   1 272.150 11.8925  11
  -2   4  -1 266.906 12.0659  11
  -2  -4  -1 286.485 10.0589  10
   2  -4   1 255.995 10.3074   8
  -2   4  -2 340.184 13.9570   1
  -2  -4  -2 387.742 13.0200  17
   2   4   2 376.531 14.1507  15
  -2   4  -2 358.773 14.0737   3
   2   4   2 380.724 12.5791  12
  -2   4  -2 344.001 14.8589  11
   2  -4   2 360.364 14.5791  11
   2  -4   2 353.992 13.3078   8
  -2  -4  -3 0.24600 1.82005  17
   2   4   3 2.55177 3.20738  15
   2   4   3 1.54999 5.06697   2
   2  -4   3 7.96411 4.85652   2
   2   4   3 0.21314 1.38506  12
   2  -4   3 0.41268 1.86080  11
  -2   4  -3-0.90557 2.59483  11
   2  -4   3 0.30595 1.79462   8
   2   4   4 186.983 10.0216  15
   2  -4   4 186.660 12.3340   2
   2   4   4 172.335 11.6544   2
   2   4   4 184.142 7.69953  12
   2  -4   4 175.817 9.45398  11
  -2  -4  -4 189.224 8.35056  12
  -2   4  -4 159.526 9.65913  11
  -2   4  -4 173.990 6.49802  16
   2  -4   5 298.254 16.9268   7
  -2  -4  -5 286.719 11.6181  12
   2   4   5 282.273 10.8073  12
   2  -4   5 285.028 13.1777  11
   2   4   5 275.135 13.4703  15
   2  -4   5 284.317 13.2485  15
  -2   4  -5 289.333 13.9132  11
   2  -4   5 282.602 16.0320   2
   2   4   5 281.925 16.0881   2
   2  -4   6 216.223 15.6775   7
   2   4   6 211.474 14.6896   7
   2   4   6 219.413 12.1453  15
   2  -4   6 229.751 11.8754  15
  -2  -4  -6 193.723 9.47230  12
  -2   4  -6 217.497 12.1881  11
   2  -4   6 209.167 14.8879   2
   2   4   6 210.566 14.8163   2
  -2  -4  -7 28.9145 3.82713  12
   2  -4   7 33.1725 9.86934   7
   2   4   7 29.4623 8.57276   7
   2  -4   7 32.0739 9.23496   2
   2   4   7 13.1780 8.68341   2
   2  -4   7 38.0564 6.49997  15
   2   4   8 521.149 24.6624   2
   2  -4   8 506.492 24.4965   2
   2  -4   8 490.811 25.0649   7
   2   4   8 519.275 24.3749   7
   2  -4   9 155.063 13.8912   2
   2   4   9 146.081 13.7717   2
   2  -4   9 135.434 14.0765   7
   2   4   9 126.521 13.3446   7
   2   4  10 32.9544 9.87228   7
   2  -4  10 12.9449 9.56503   7
   2  -4  10 22.5577 9.13931   2
   2   4  10 39.2562 9.61234   2
   2  -4  11 60.4269 12.2740   7
   2  -4  11 90.2798 12.8630   2
   2   4  11 71.9369 11.5453   2
  -2   5  13 15.4633 7.07860   2
  -2  -5  13 27.2908 8.33898   2
   2  -5 -12 0.93658 6.92948  15
  -2   5  12-2.54934 5.91719   2
  -2  -5  12-6.14322 6.76568   2
  -2  -5  12-0.90414 6.24468   7
  -2   5  11 33.3078 4.52380  16
  -2  -5  11 27.2600 4.22999  14
   2  -5 -11 37.6810 8.29454  15
  -2   5  11 16.4340 5.83759   2
  -2  -5  11 31.4983 7.00083   2
  -2  -5  11 25.9204 6.97597   7
  -2   5  10 19.5952 3.60024  16
   2  -5 -10 23.3104 7.22021  15
  -2  -5  10 17.7301 3.52291  14
  -2   5  10 15.7861 5.19751   7
  -2  -5  10 10.6832 5.70343   7
  -2  -5  10 19.7970 6.13313   2
  -2   5  10 9.96471 5.68228   2
  -2   5   9 182.735 11.2667   7
  -2  -5   9 185.517 12.2116   7
   2  -5  -9 181.792 12.5204  15
   2  -5  -9 195.423 14.1716   4
   2   5  -9 159.723 12.9402   4
  -2  -5   9 182.989 9.88882  14
   2  -5  -9 192.905 10.1676  10
  -2   5   9 200.860 12.2794   2
  -2  -5   9 171.829 11.7170   2
   2  -5  -8 205.822 14.3195   2
  -2   5   8 195.020 11.8814   2
  -2  -5   8 188.362 11.8701   2
   2   5  -8 224.448 14.2070   2
   2   5  -8 221.630 9.95265  16
   2  -5  -8 229.219 13.1771  15
   2  -5  -8 209.135 13.9227   4
   2   5  -8 211.156 13.7943   4
  -2  -5   8 206.871 10.3831  14
   2  -5  -8 220.353 10.7735  10
  -2   5   8 219.936 11.5058   7
   2   5  -8 190.591 13.8945   7
  -2  -5   8 198.988 12.4178   7
   2  -5  -8 247.630 14.7462   7
   2   5  -7 1044.90 35.2017   2
   2  -5  -7 1014.17 34.8192   2
  -2  -5   7 1055.82 34.4919   2
  -2   5   7 1024.51 34.2045   2
  -2  -5   7 1058.92 32.7810  14
  -2   5   7 1057.37 33.4327  15
   2  -5  -7 1010.83 34.7550  15
   2   5  -7 982.999 31.8754  15
   2   5  -7 1051.70 31.9484  16
   2  -5  -7 1017.65 35.4068   4
   2   5  -7 1032.47 35.6193   4
   2  -5  -7 1015.46 32.5687  10
  -2   5   7 1016.81 33.1954   7
  -2  -5   7 1034.35 34.8261   7
   2   5  -7 1021.46 35.8263   7
   2  -5  -7 1028.34 34.6378   7
   2  -5  -6 228.032 11.4793   2
   2   5  -6 209.004 11.2128   2
  -2  -5   6 198.300 10.5990   2
   2   5  -6 218.478 9.36295  16
  -2   5   6 226.837 10.6161  15
  -2  -5   6 208.507 8.75094  15
   2  -5  -6 212.671 11.1952  15
   2   5  -6 207.193 9.15126  15
   2   5  -6 227.202 10.0478  14
  -2  -5   6 212.025 9.83900  14
   2  -5  -6 208.875 11.4255   4
   2   5  -6 203.346 11.3449   4
  -2  -5   6 202.906 8.24503   5
  -2   5   6 198.565 8.18113   5
   2   5  -6 223.781 9.85931  11
   2  -5  -6 243.158 10.3196  10
  -2  -5   6 215.702 11.1787   7
   2   5  -6 221.012 12.1263   7
   2  -5  -6 214.089 11.1265   7
   2   5  -5 286.289 12.4808   2
   2  -5  -5 282.505 12.2831   2
   2   5  -5 267.148 10.8177  16
   2  -5  -5 279.950 12.3923  15
   2   5  -5 277.231 10.2248  15
   2   5  -5 271.935 11.2250  14
  -2   5   5 294.782 11.8886  15
   2   5  -5 278.445 12.4583   4
  -2   5   5 270.746 9.93181   5
  -2  -5   5 282.061 9.91477   5
   2  -5  -5 264.641 12.2083   4
  -2  -5   5 291.080 10.0819  11
   2   5  -5 279.897 11.1636  13
  -2  -5   5 273.236 11.2985  14
   2   5  -5 283.050 11.0808  11
   2  -5  -5 284.643 11.5753  10
  -2   5   5 280.284 10.5558  10
  -2  -5   5 290.964 12.4425   7
   2  -5  -5 290.428 11.6758   7
   2   5  -5 264.734 10.1610   8
   2   5  -5 276.729 12.7311   7
   2   5  -5 276.926 10.6572   9
   2  -5  -4 597.716 19.6463   7
   2   5  -4 648.724 21.0215   7
   2   5  -4 619.828 19.2713   9
   2   5  -4 609.278 19.9686  14
   2   5  -4 625.131 18.5119  15
   2  -5  -4 606.339 20.9232  15
   2   5  -4 613.072 20.6618   4
  -2   5   4 592.005 18.1117   6
  -2   5   4 594.334 18.8868   5
   2  -5  -4 607.989 20.4428   4
  -2  -5   4 597.123 18.6152  11
   2   5  -4 611.496 19.9164  13
  -2  -5   4 647.557 20.2886  14
  -2   5   4 607.054 19.5772  10
   2   5  -4 611.432 19.5736  11
   2   5  -4 629.209 20.5664   2
   2  -5  -4 613.428 19.3591   3
   2  -5  -4 631.339 20.5225   2
   2   5  -4 624.002 19.4734   3
   2  -5  -3 112.892 5.18055   3
   2   5  -3 112.081 5.76262   2
   2  -5  -3 111.611 5.72219   2
   2   5  -3 114.411 5.22891   3
   2   5  -3 102.884 8.25219  18
   2   5  -3 110.247 4.47807  15
   2  -5  -3 103.037 5.91690  15
   2   5  -3 107.646 5.59026  14
   2   5  -3 111.617 6.08292   6
  -2   5   3 108.326 5.26255   5
   2   5  -3 108.356 5.14502   5
   2   5  -3 113.514 5.74333  13
  -2  -5   3 122.990 5.85226  14
   2   5  -3 107.108 5.05503  10
  -2  -5   3 116.759 5.16370  11
  -2   5   3 115.148 5.89734  10
   2  -5  -3 107.042 5.22031   7
   2  -5  -3 102.821 6.31893   9
   2   5  -3 107.374 6.10142   7
  -2  -5   2 106.744 4.70850   3
   2  -5  -2 97.6374 4.64599   3
  -2   5   2 105.571 4.76616   3
   2   5  -2 104.706 4.77329   3
   2  -5  -2 102.186 4.78613   1
   2   5  -2 109.290 4.91019   1
  -2  -5   2 101.610 7.70795  18
   2   5  -2 100.633 8.12912  18
   2  -5  -2 98.1744 5.39688  15
   2   5  -2 99.3094 4.98478  14
   2   5  -2 110.451 5.72195   6
   2  -5  -2 102.036 4.96180   5
  -2  -5   2 99.5805 5.01359  14
  -2  -5   2 96.8454 5.18434  13
   2   5  -2 103.623 4.76008  10
  -2  -5   2 98.6617 4.87114  11
  -2  -5   2 105.818 5.24793   9
   2  -5  -2 99.5843 6.19339   9
  -2   5   2 97.7220 5.12375   8
   2   5  -1 133.213 5.71406   3
  -2  -5   1 127.328 5.29997   3
  -2   5   1 120.374 5.22422   3
   2  -5  -1 131.221 5.70592   3
  -2  -5   1 124.935 5.27076   1
  -2   5   1 124.853 5.34313   1
   2  -5  -1 126.823 5.68577   1
   2   5  -1 121.600 5.59105   1
   2   5  -1 115.141 6.37528  17
   2   5  -1 130.445 8.52218  18
  -2  -5   1 122.669 8.38809  18
   2   5  -1 121.742 5.35772  14
   2   5  -1 128.989 6.16712   6
  -2  -5   1 115.282 6.39876   6
   2  -5  -1 123.778 5.93214   5
  -2  -5   1 129.433 6.11761  13
   2  -5  -1 114.267 7.31782  11
   2   5  -1 136.939 5.47737  10
  -2  -5   1 120.298 5.76934  10
  -2   5   1 144.595 7.30917   9
  -2   5   1 123.512 6.07925   8
  -2   5   0 291.150 10.2515   3
  -2  -5   0 295.250 10.3291   3
   2  -5   0 287.088 10.7352   1
  -2   5   0 285.346 10.2089   1
   2   5   0 294.779 10.9088   1
  -2  -5   0 291.995 10.3224   1
   2  -5   0 311.749 11.1901  18
   2   5   0 293.900 11.0792  17
  -2  -5   0 276.900 13.3233  18
  -2  -5   0 311.323 11.4398  17
   2  -5   0 285.620 10.5938   3
   2   5   0 280.751 10.6678   3
  -2  -5   0 288.545 11.3999   6
   2   5   0 292.973 9.72576  14
  -2   5   0 291.494 12.8071  11
   2  -5   0 307.793 13.1790  11
  -2  -5   0 287.030 10.6037  10
  -2   5   0 280.893 10.9528   8
   2  -5   0 303.614 11.1236   8
  -2   5   0 291.242 12.1213   9
  -2   5  -1 306.666 11.7484   3
  -2  -5  -1 334.052 11.9925   1
  -2   5  -1 329.846 11.8699   1
  -2   5  -1 314.787 12.1296  18
   2   5   1 334.525 11.8817  17
  -2  -5  -1 351.342 12.2586  17
   2   5   1 316.784 12.1522  15
  -2  -5  -1 326.441 12.3348   6
  -2  -5  -1 320.383 11.9850   3
   2   5   1 309.332 10.2542  14
   2   5   1 352.138 11.7813  12
  -2   5  -1 330.863 14.2689  11
  -2  -5  -1 324.918 11.8289  10
   2  -5   1 315.812 14.0123  11
   2  -5   1 318.557 12.1642   8
  -2   5  -2 82.6796 5.66642   1
  -2  -5  -2 70.6189 5.51276   1
  -2  -5  -2 67.9324 4.59799  17
  -2   5  -2 74.8113 5.44764  18
   2   5   2 62.5367 5.29915  15
  -2  -5  -2 69.5296 5.31537   3
  -2  -5  -2 72.5928 4.89187   6
  -2   5  -2 76.1216 5.37604   3
   2   5   2 59.1544 4.04774  12
  -2   5  -2 76.6943 6.58296  11
   2  -5   2 60.2964 5.61580  11
  -2  -5  -2 67.9600 4.58169  10
   2  -5   2 68.4206 4.97616   8
   2   5   3 1410.46 46.1989   2
   2  -5   3 1440.54 46.6309   2
   2   5   3 1473.86 44.3405  15
  -2  -5  -3 1485.69 42.8725  17
   2   5   3 1557.61 42.5774  12
  -2   5  -3 1464.79 46.2589  11
   2  -5   3 1426.22 45.3903  11
   2  -5   3 1457.03 43.8210   8
   2  -5   4 137.893 10.8522   2
   2   5   4 127.398 10.4447   2
  -2  -5  -4 131.826 6.77151  17
   2   5   4 128.147 8.41955  15
   2  -5   4 114.926 7.88192  11
   2   5   4 133.330 6.37343  12
  -2   5  -4 150.313 9.32409  11
   2  -5   4 130.792 7.50466   8
   2   5   5 35.4116 7.95992   2
   2  -5   5 26.4484 8.55898   2
  -2  -5  -5 25.3069 3.46780  17
   2  -5   5 33.9720 5.71157  15
   2   5   5 30.3919 6.00706  15
   2  -5   5 24.4759 8.20466   7
   2   5   5 30.1240 3.21129  12
   2  -5   5 24.2880 4.23624  11
  -2   5  -5 22.1981 5.08530  11
   2  -5   5 27.1675 3.89009   8
   2  -5   6 200.170 15.2913   7
   2   5   6 229.687 14.9565   7
   2  -5   6 220.457 10.8646   8
   2   5   6 243.651 12.6398  15
   2  -5   6 202.817 11.5332  15
   2  -5   6 231.317 11.9619  11
  -2   5  -6 214.309 12.5466  11
   2   5   6 236.229 13.9066   4
   2  -5   6 201.539 13.8420   4
   2  -5   6 221.293 15.5064   2
   2   5   6 188.081 14.3341   2
   2   5   7-11.3158 8.51704   2
   2  -5   7 6.71482 7.92469   2
   2   5   7 10.0422 7.99526   7
   2  -5   7 0.90309 8.26051   7
   2   5   8 79.4424 10.5893   2
   2  -5   8 60.6647 9.83225   2
   2  -5   8 81.6668 11.5075   7
   2   5   8 51.7396 9.35329   7
   2   5   9 20.5124 8.58175   2
   2  -5   9 14.4763 8.63235   2
   2  -5   9 12.3889 9.18741   7
   2   5   9 2.67086 8.11956   7
   2  -5   9 27.3778 5.16600  14
   2  -5  10 41.2299 10.7845   7
   2  -5  10 61.2514 10.8571   2
   2   5  10 64.3116 10.5652   2
   2  -5  11 47.1919 11.6788   7
   2  -5  11 37.4594 10.2928   2
   2   5  11 38.5626 10.1524   2
  -2  -6  13 1.86618 6.54907   2
  -2   6  13-0.89477 6.80635   2
  -2   6  12 78.5954 9.53283   2
  -2  -6  12 67.8657 9.41548   2
  -2  -6  12 61.6769 9.73428   7
   2  -6 -12 71.6233 10.3350  15
   2  -6 -11 387.043 20.3082  15
  -2   6  11 357.606 15.7542  16
  -2  -6  11 330.946 15.4370  14
  -2   6  11 344.516 18.4029   2
  -2  -6  11 353.848 18.7794   2
  -2  -6  11 337.163 18.9098   7
   2  -6 -10 329.638 17.9645  15
  -2   6  10 307.671 14.2702  16
  -2  -6  10 334.432 14.7978  14
  -2  -6  10 309.654 17.3045   7
  -2   6  10 318.264 16.8718   2
  -2  -6  10 322.460 17.1855   2
  -2  -6   9 347.781 17.5578   7
  -2  -6   9 409.028 15.9968  14
   2  -6  -9 352.014 17.9318  15
   2  -6  -9 361.338 15.8324  10
  -2   6   9 326.594 16.7434   2
  -2  -6   9 336.884 17.0349   2
   2  -6  -8-1.90564 8.35270   2
   2   6  -8 13.7970 7.88434   2
  -2   6   8 3.31683 4.40405   2
  -2  -6   8 12.6165 4.89451   2
   2   6  -8 7.91301 2.51243  16
   2  -6  -8 13.4509 5.75174  15
   2  -6  -8 18.3138 7.52873   4
   2   6  -8 5.58520 6.47797   4
   2   6  -8 10.9661 8.78501   7
  -2  -6   8 8.55594 2.93304  14
   2  -6  -8 6.62567 3.45682  10
  -2   6   8 4.20724 4.11789   7
  -2  -6   8 4.92950 4.81641   7
  -2  -6   7 5.93421 4.21791   7
   2  -6  -7 8.99798 4.56219  15
  -2   6   7 1.74483 3.68508  15
   2   6  -7 8.71006 2.35988  16
   2  -6  -7 7.11295 4.86491   4
   2  -6  -7 8.42760 6.32546   7
   2   6  -7 10.0342 5.81556   4
   2   6  -7 5.96361 7.01875   7
  -2  -6   7 10.0172 2.93639  14
   2  -6  -7 6.59608 3.06840  10
   2   6  -7 17.7479 6.16745   2
   2  -6  -7 10.2959 6.21409   2
  -2  -6   7 3.98540 3.96980   2
  -2  -6   6 1.85176 3.40047   7
   2   6  -6-0.26641 1.77862   8
   2  -6  -6-0.97849 3.61962  15
  -2   6   6-0.78413 3.10095  15
   2   6  -6 0.94569 1.82794  16
   2  -6  -6 2.02278 4.65061   7
   2   6  -6-5.06166 5.90410   7
   2  -6  -6-1.95493 4.25641   4
  -2  -6   6 1.82606 1.80538   5
   2   6  -6 0.48973 4.10833   4
  -2   6   6 0.69575 1.67868   5
   2   6  -6 2.18279 2.93083  14
  -2  -6   6 0.76360 1.93950  14
   2   6  -6-1.94065 2.14035  13
   2  -6  -6 1.62772 2.33205  10
  -2  -6   6 2.33602 1.85050  11
   2  -6  -6 0.45157 4.42855   2
   2   6  -6 5.41101 4.81793   2
   2  -6  -5 203.162 10.0745   2
   2   6  -5 200.261 9.99929   2
   2   6  -5 199.396 8.63703   3
   2   6  -5 204.418 9.01834  16
  -2  -6   5 195.329 9.34730  14
   2  -6  -5 191.078 10.1033  15
   2   6  -5 195.071 7.78352  15
   2   6  -5 185.962 9.22134  14
  -2   6   5 206.531 9.79706  15
   2  -6  -5 189.466 9.96553   4
   2   6  -5 190.599 10.0086   4
  -2   6   5 194.631 8.18456   5
   2   6  -5 196.206 8.91778  13
  -2  -6   5 212.527 8.34127  11
   2   6  -5 206.000 9.28109  11
   2  -6  -5 202.765 9.67973  10
  -2   6   5 204.186 8.72953  10
  -2  -6   5 222.211 10.3418   7
   2   6  -5 185.222 8.31239   8
   2  -6  -5 209.170 9.47676   7
   2   6  -5 197.468 10.5687   7
   2   6  -5 195.454 8.76974   9
   2   6  -4 44.4028 3.34011   3
   2  -6  -4 46.8923 4.43472   2
   2  -6  -4 45.8303 3.38230   3
   2   6  -4 42.1174 4.31224   2
   2   6  -4 52.8470 6.63451  18
  -2  -6   4 35.6749 3.56563  14
   2  -6  -4 47.8823 4.51478  15
   2   6  -4 47.9887 2.89633  15
   2   6  -4 50.5161 4.19899  14
  -2   6   4 40.2299 3.05916   6
   2  -6  -4 44.5917 4.39253   4
   2   6  -4 41.9674 4.32805   4
  -2   6   4 44.0302 3.44909   5
   2   6  -4 46.1071 3.76863  13
  -2   6   4 55.9950 4.10415  10
   2   6  -4 37.7490 3.69673  11
  -2  -6   4 44.4445 3.46926  11
   2   6  -4 42.4850 3.69831   9
   2  -6  -4 50.7383 3.97690   7
   2   6  -4 44.5096 4.49959   7
   2  -6  -3 4.61105 1.41451   3
   2   6  -3 4.17560 1.37590   3
   2   6  -3 3.93032 1.34820   1
   2  -6  -3 3.36992 2.11318   2
   2  -6  -3 3.70212 1.31440   1
   2   6  -3 1.62463 1.99124   2
   2   6  -3-2.06412 4.30280  18
   2   6  -3 5.36928 1.14767  15
   2  -6  -3 5.67744 2.18024  15
   2   6  -3 7.79931 2.45641   6
  -2   6   3 1.19400 1.38679   5
   2   6  -3 2.07429 1.33861   5
   2   6  -3 3.78870 1.93576  14
   2   6  -3 3.56408 1.81654  13
  -2  -6   3 1.08311 1.26929  14
  -2   6   3-0.29494 1.77053  10
  -2  -6   3-0.71742 1.73260  11
   2   6  -3 2.13911 1.60685  10
   2  -6  -3 2.74902 2.14206   9
   2  -6  -3 1.76042 1.70697   7
   2   6  -3 4.01007 2.51411   7
   2   6  -2 343.956 11.5109   3
   2  -6  -2 345.257 11.4815   3
  -2  -6   2 356.902 11.4879   3
   2   6  -2 350.908 11.6767   1
   2  -6  -2 348.701 11.6264   1
   2   6  -2 358.004 16.8343  18
  -2  -6   2 374.950 16.3663  18
   2   6  -2 332.416 12.1068  14
   2  -6  -2 351.037 12.7211  15
   2   6  -2 357.385 13.1587   6
   2  -6  -2 339.620 12.1499   5
   2   6  -2 354.504 12.4366   5
  -2  -6   2 339.107 12.4127  13
  -2  -6   2 340.234 12.3074  14
  -2  -6   2 315.961 12.2535  11
   2   6  -2 351.045 12.0070  10
   2   6  -2 360.823 12.3496   7
  -2   6   2 351.901 12.7248   8
  -2  -6   2 352.609 12.8543   9
   2  -6  -2 335.920 13.9373   9
  -2   6   1 129.305 5.40257   3
   2  -6  -1 130.546 5.73273   3
   2   6  -1 124.486 5.74186   3
  -2  -6   1 129.930 5.45831   3
  -2   6   1 135.147 5.40501   1
   2   6  -1 127.685 5.78732   1
   2  -6  -1 124.499 5.74109   1
  -2  -6   1 125.534 5.28775   1
   2   6  -1 127.241 6.83813  17
  -2  -6   1 122.417 9.04311  18
   2   6  -1 127.826 5.79575  14
   2   6  -1 140.390 6.76797   6
   2  -6  -1 134.191 6.36012   5
  -2  -6   1 132.363 6.40651  13
   2   6  -1 130.386 5.85701  10
   2  -6  -1 114.468 7.82469  11
  -2  -6   1 127.242 6.36422  10
  -2   6   1 132.405 7.47197   9
  -2   6   1 146.466 6.87611   8
  -2  -6   0 124.258 5.39540   3
  -2   6   0 113.244 5.20456   3
  -2  -6   0 108.375 8.51094  18
   2   6   0 115.643 6.18106  17
   2  -6   0 110.784 6.75746  18
   2   6   0 116.915 5.14068  14
   2   6   0 110.333 5.83629  15
  -2   6   0 116.866 5.28682   1
  -2  -6   0 120.989 5.43867   1
  -2  -6   0 130.883 6.96363   6
   2  -6   0 107.920 7.74935  11
   2   6   0 117.313 5.53691  10
  -2  -6   0 106.477 5.99133  10
  -2   6   0 113.814 6.17209   8
  -2   6   0 124.486 7.38368   9
  -2   6  -1 1636.02 46.8382   3
  -2  -6  -1 1633.05 46.9727   3
  -2  -6  -1 1694.65 46.9516   1
  -2   6  -1 1644.81 46.7446   1
  -2   6  -1 1618.79 48.1637  18
  -2  -6  -1 1721.09 47.8670  17
   2   6   1 1591.16 47.1584  17
   2   6   1 1607.78 47.2416  15
   2   6   1 1645.17 45.4825  14
  -2  -6  -1 1660.74 48.3522   6
   2  -6   1 1510.92 50.2587  11
  -2   6  -1 1661.35 50.5201  11
  -2  -6  -1 1670.04 47.7333  10
  -2   6  -1 1698.13 49.7059   9
  -2   6  -1 1612.35 47.9731   8
   2  -6   1 1637.94 47.7451   8
  -2   6  -2 12.9614 2.85279   3
  -2  -6  -2 13.8003 2.99225   3
  -2  -6  -2 9.81408 3.09388   1
  -2   6  -2 10.9701 3.16808   1
  -2  -6  -2 12.1088 2.49560  17
  -2   6  -2 11.5021 3.75662  18
   2   6   2 18.9853 3.80535  15
  -2  -6  -2 11.5365 2.56665   6
   2   6   2 10.1585 1.31353  14
   2   6   2 12.2200 2.22544  12
  -2   6  -2 4.78633 3.40431  11
   2  -6   2 15.4295 3.67884  11
  -2  -6  -2 9.09015 2.20667  10
   2  -6   2 13.3290 2.74357   8
   2  -6   3 264.723 14.2089   2
   2   6   3 281.802 14.0362   2
  -2  -6  -3 290.778 11.3551  17
  -2   6  -3 275.889 12.9947  18
   2   6   3 290.433 12.3505  15
  -2  -6  -3 285.460 12.0300   6
   2   6   3 284.683 10.8508  12
   2   6   3 283.257 8.92880  14
  -2   6  -3 290.814 14.2116  11
   2  -6   3 286.940 13.6188  11
  -2  -6  -3 283.808 11.9293  10
   2  -6   3 283.115 11.9745   8
   2   6   4 97.2530 9.29705   2
   2  -6   4 108.551 10.0594   2
  -2  -6  -4 84.6105 5.55653  17
   2   6   4 75.6069 7.00132  15
  -2  -6  -4 102.814 6.54360   6
   2   6   4 89.4624 5.25026  12
  -2   6  -4 90.3984 7.78453  11
  -2  -6  -4 101.094 6.50840  10
   2  -6   4 92.3223 7.28097  11
   2  -6   4 104.008 10.4361   7
   2  -6   4 89.4174 6.43222   8
   2   6   5 479.434 21.3378   2
   2  -6   5 445.310 21.5968   2
  -2  -6  -5 469.581 16.7747  17
   2   6   5 506.558 19.2856  15
   2  -6   5 472.309 18.2547  15
   2   6   5 482.716 16.2997  12
   2  -6   5 468.384 19.2995  11
  -2   6  -5 448.117 19.9580  11
  -2  -6  -5 468.958 18.1780  10
   2  -6   5 474.653 22.5553   7
   2   6   5 480.893 20.9972   7
   2  -6   5 484.405 18.1842   8
   2   6   6 90.2805 10.7658   2
   2   6   6 135.228 11.9215   7
   2  -6   6 118.622 7.83527   8
   2  -6   6 106.340 12.4280   7
   2   6   6 110.847 9.22588  15
   2  -6   6 112.973 8.46352  11
   2   6   6 106.450 6.13872  12
  -2  -6  -6 106.790 7.61742  10
   2   6   6 118.236 10.6329   4
   2  -6   6 118.490 11.1843   4
   2  -6   6 113.281 11.9329   2
  -2  -6  -7 22.4683 4.09255  10
   2  -6   7 34.5288 9.10758   7
   2   6   7 17.8578 7.49376   7
   2  -6   7 26.3566 4.75786  11
   2  -6   7 11.6612 7.53200   2
   2   6   7 9.45570 6.77850   2
   2  -6   8 146.536 13.8391   7
  -2  -6  -8 123.408 8.88623  10
   2  -6   8 147.316 12.8985   2
   2   6   8 120.169 11.8412   2
   2  -6   8 141.241 9.78446  14
   2  -6   9 271.627 19.2548   7
   2  -6   9 297.110 14.7774  14
  -2  -6  -9 276.100 14.3612  10
   2   6   9 310.130 18.4814   2
   2  -6   9 278.046 18.5488   2
  -2  -6 -10 5.12864 3.76118  10
   2  -6  10-2.17336 9.21717   7
   2  -6  10 5.07255 7.61259   2
   2   6  10-2.90453 7.60989   2
   2   6  11 108.438 13.1647   2
   2  -6  11 94.7553 13.1168   2
  -2  -7  12-1.17987 3.29945  14
  -2  -7  12-1.72153 6.76534   2
  -2  -7  12-0.91007 6.28540   7
   2  -7 -12-1.94618 7.45199  15
   2  -7 -11 31.3096 8.05177  15
  -2  -7  11 26.9421 6.78549   2
  -2  -7  11 18.7728 4.19375  14
  -2   7  11 22.5392 4.19892  16
  -2  -7  11 29.4797 7.39890   7
  -2  -7  10 13.0105 3.81355  14
  -2  -7  10 10.0413 5.80132   7
  -2  -7  10 7.91381 5.01588   2
  -2   7  10 3.44103 5.09809   2
   2  -7 -10 13.0720 6.30343  15
  -2  -7   9 75.1066 8.35496   7
  -2  -7   9 77.5332 6.66161  14
   2  -7  -9 82.7077 9.03123  15
   2  -7  -9 77.5368 6.99345  10
  -2  -7   9 83.0889 8.28334   2
  -2   7   9 81.8971 7.96139   2
  -2  -7   8 3.10205 4.39372   7
   2  -7  -8 13.8812 5.67079  15
   2  -7  -8 17.0203 7.04225   4
   2   7  -8 11.1311 6.62893   4
  -2  -7   8 8.18943 2.98898  14
   2  -7  -8 6.77599 3.23293  10
   2  -7  -8 9.60818 7.74835   2
  -2  -7   8 4.55000 4.24277   2
   2   7  -7 754.308 28.6473   2
   2  -7  -7 775.562 28.8185   2
   2   7  -7 867.230 26.3817  16
  -2   7   7 815.975 27.3778  15
   2  -7  -7 766.604 28.6902  15
  -2  -7   7 740.234 26.6492  14
   2  -7  -7 790.009 29.2005   4
   2   7  -7 735.607 28.6805   4
   2   7  -7 745.031 25.6973  13
   2  -7  -7 808.177 27.6105  10
  -2  -7   7 832.739 28.6333   7
   2   7  -7 854.464 30.1920   7
   2   7  -6 272.951 13.0814   2
   2  -7  -6 272.554 13.0761   2
   2   7  -6 273.004 11.3658  16
  -2   7   6 288.943 12.5445  15
   2  -7  -6 257.131 13.1309  15
  -2  -7   6 261.764 11.8630  14
   2  -7  -6 259.620 13.2004   4
   2   7  -6 262.497 13.2606   4
  -2   7   6 254.140 10.4736   5
  -2  -7   6 267.313 10.4692   5
  -2  -7   6 271.194 10.7594  11
   2   7  -6 249.239 10.9892  13
   2  -7  -6 256.211 12.2688  10
  -2  -7   6 244.768 12.5278   7
   2   7  -6 253.384 10.7424   8
   2   7  -6 245.609 13.8129   7
   2   7  -5 14.4740 2.43040   3
   2  -7  -5 12.7048 2.30403   3
   2  -7  -5 11.5190 4.17530   2
   2   7  -5 15.5162 4.43720   2
   2   7  -5 20.4478 6.08711  18
   2  -7  -5 11.0437 3.92656  15
  -2   7   5 13.7449 3.55528  15
  -2   7   5 14.7706 2.64251   5
   2  -7  -5 11.0934 4.05998   4
   2   7  -5 23.3259 4.61554   4
  -2  -7   5 19.0211 3.04887  14
   2   7  -5 15.4690 3.49858  14
   2   7  -5 19.4423 2.95350  13
  -2  -7   5 19.2896 2.79620  11
   2   7  -5 14.0216 2.94204   9
   2   7  -5 13.1968 2.53014   8
   2  -7  -5 11.8052 4.11246   7
   2   7  -5 12.0175 4.92072   7
  -2   7   5 16.2471 2.81921  10
   2   7  -4 180.695 7.58807   3
   2  -7  -4 181.483 7.50854   3
   2  -7  -4 196.759 8.89315   2
   2   7  -4 190.159 8.74451   2
   2   7  -4 167.977 12.4085  18
   2  -7  -4 176.602 9.23861  15
  -2  -7   4 185.679 8.69452  14
   2   7  -4 192.634 8.85258  14
  -2   7   4 167.014 7.48688   6
   2  -7  -4 177.416 8.77683   4
   2   7  -4 161.151 8.51161   4
   2   7  -4 184.106 8.13071   5
  -2   7   4 175.950 8.06353   5
   2   7  -4 189.531 8.38157  13
  -2   7   4 180.465 8.56945  10
  -2  -7   4 175.679 8.13730  11
   2  -7  -4 179.076 9.78141   9
   2  -7  -4 178.010 7.86444   7
   2   7  -4 187.695 9.29068   7
   2   7  -3 130.790 6.37843   2
   2  -7  -3 126.206 5.71324   3
   2  -7  -3 122.083 6.21146   2
   2   7  -3 143.915 5.93369   3
   2  -7  -3 123.139 5.70129   1
   2   7  -3 133.589 5.86390   1
   2   7  -3 135.643 10.6670  18
   2  -7  -3 122.283 6.88603  15
   2   7  -3 123.436 4.37716  15
   2   7  -3 130.982 6.79248  14
   2   7  -3 132.995 7.61053   6
   2   7  -3 127.205 6.40822   4
  -2   7   3 135.592 6.74849   5
   2   7  -3 134.097 6.60824   5
   2   7  -3 126.228 6.54774  13
  -2  -7   3 134.865 6.81434  14
  -2  -7   3 125.523 6.78863  11
   2   7  -3 124.407 6.36823  10
  -2   7   3 136.112 7.26605  10
   2  -7  -3 128.757 8.02692   9
   2  -7  -3 125.347 5.68837   7
   2   7  -3 134.708 6.95665   7
  -2  -7   3 139.418 7.29661   9
   2  -7  -2 58.9588 3.54133   3
   2   7  -2 67.0243 3.75111   3
   2  -7  -2 64.1619 3.70840   1
   2   7  -2 82.1540 4.12318   1
  -2  -7   2 61.4237 7.28275  18
   2   7  -2 65.7445 7.57486  18
   2  -7  -2 63.1212 4.55257  15
   2   7  -2 72.8028 4.53296  14
   2   7  -2 57.8596 4.86763   6
   2  -7  -2 63.7713 4.34396   5
   2   7  -2 68.8927 4.61826   5
  -2  -7   2 67.0082 4.41090  13
  -2  -7   2 69.9602 4.46360  14
  -2   7   2 54.9894 4.81456  10
   2   7  -2 71.8922 4.47463  10
  -2  -7   2 62.7614 4.73823  11
  -2  -7   2 69.3738 5.02908   9
   2   7  -2 66.9703 4.33616   7
  -2   7   2 68.0350 4.72268   8
   2  -7  -2 69.1461 5.79391   9
   2  -7  -1 216.925 8.22205   3
  -2  -7   1 225.624 7.89590   3
  -2   7   1 210.169 7.71500   3
   2   7  -1 232.689 8.54628   1
   2  -7  -1 214.251 8.30904   1
   2   7  -1 219.268 9.96636  17
   2  -7  -1 210.107 10.4963  18
  -2  -7   1 208.130 12.5704  18
   2   7  -1 223.061 8.70947  14
   2   7  -1 209.756 7.85730  15
   2   7  -1 223.894 9.66246   6
   2  -7  -1 215.080 9.25141   5
   2   7  -1 232.240 8.43641   3
  -2  -7   1 225.023 9.32340  13
  -2  -7   1 226.411 8.70414  14
   2   7  -1 212.988 8.73508  10
   2  -7  -1 203.240 11.4345  11
  -2   7   1 225.584 10.6811   9
  -2   7   1 209.012 9.51229   8
   2  -7  -1 222.401 11.1666   9
  -2   7   0 56.4525 3.35278   3
  -2  -7   0 57.2399 3.40532   3
   2   7   0 47.3667 4.23773  17
   2  -7   0 61.9381 5.64127  18
  -2  -7   0 47.0597 6.76514  18
   2   7   0 60.0495 3.68783  14
   2   7   0 51.9821 3.93512  15
  -2  -7   0 51.0005 3.32809   1
  -2   7   0 56.9360 3.40814   1
   2   7   0 61.0768 4.51454   6
   2  -7   0 62.2795 4.56648   5
  -2  -7   0 57.3923 4.87880   6
   2   7   0 54.3545 3.85915  10
  -2  -7   0 77.6899 5.08470  10
   2  -7   0 65.0916 6.28274  11
  -2   7   0 68.1202 5.66493   9
  -2   7   0 59.7882 4.57861   8
  -2  -7  -1 723.303 22.2615   3
  -2   7  -1 705.646 22.0814   3
  -2  -7  -1 713.887 22.2022   1
  -2   7  -1 722.239 22.1283   1
   2   7   1 690.706 22.8310  17
   2   7   1 712.605 21.2580  14
   2   7   1 707.819 22.5862  15
  -2  -7  -1 711.786 24.2546   6
   2  -7   1 697.582 26.1421  11
  -2   7  -1 722.270 26.0931  11
  -2  -7  -1 733.627 23.7801  10
  -2   7  -1 729.176 23.7836   8
  -2   7  -1 726.670 25.2727   9
  -2  -7  -2 55.2602 4.77929   1
  -2   7  -2 48.1622 4.53903   1
  -2   7  -2 44.6747 5.48199  18
  -2  -7  -2 44.1131 4.20718  17
   2   7   2 55.6852 4.17634  17
   2   7   2 48.9013 4.88397  15
   2   7   2 52.7137 2.92478  14
  -2  -7  -2 48.7247 4.71515   6
  -2   7  -2 52.4691 4.50948   3
  -2  -7  -2 43.2191 4.43885   3
   2   7   2 57.3795 4.12141  12
  -2  -7  -2 51.3049 4.49453  10
  -2   7  -2 44.1821 5.84943  11
   2  -7   2 48.1318 5.54873  11
   2  -7   2 52.3415 4.75607   8
   2  -7   3 1008.24 35.3444   2
   2   7   3 1045.15 34.7473   2
  -2   7  -3 1033.91 34.7535  18
  -2  -7  -3 1084.21 32.2564  17
   2   7   3 1037.03 33.0569  15
  -2  -7  -3 1041.47 33.3205   6
   2   7   3 1053.06 31.8235  12
  -2   7  -3 1072.07 36.2068  11
  -2  -7  -3 1070.36 33.4600  10
   2  -7   3 1008.23 35.2391  11
   2  -7   3 1038.81 33.0809   8
   2   7   4 21.1498 7.10351   2
   2  -7   4 31.0037 8.08033   2
  -2   7  -4 26.3586 5.57802  18
  -2  -7  -4 35.0738 4.04131  17
   2   7   4 31.4074 5.15899  15
   2  -7   4 38.0257 8.39381   7
  -2  -7  -4 24.8847 3.96534   6
   2   7   4 28.1511 3.23248  12
   2  -7   4 25.5362 4.67925  11
  -2   7  -4 33.1389 5.76814  11
  -2  -7  -4 25.2702 3.93313  10
   2  -7   4 27.4957 4.09384   8
   2  -7   5 330.377 18.4493   7
   2   7   5 340.269 16.8950   7
   2  -7   5 360.411 14.8712   8
   2   7   5 352.357 15.4176  15
   2   7   5 344.685 12.7587  12
   2  -7   5 309.893 15.4495  11
   2   7   5 335.388 17.2128   2
   2  -7   5 328.118 18.0400   2
  -2   7  -5 314.220 16.5073  11
  -2  -7  -5 337.731 14.7003  10
  -2  -7  -5 336.045 14.3260   6
  -2  -7  -6 22.4055 4.28777  10
   2   7   6 24.6308 3.23519  12
   2  -7   6 42.8380 8.64400   4
  -2  -7  -6 31.0686 4.46949   6
   2  -7   6 51.1446 9.63839   7
   2  -7   6 33.5828 5.20394  11
   2   7   6 22.3521 8.32012   2
   2  -7   6 24.9586 8.67459   2
   2  -7   7 72.9866 7.18172  11
   2  -7   7 50.0588 9.54811   7
  -2  -7  -7 65.4307 6.36304  10
   2   7   7 64.9374 8.87868   2
   2  -7   7 74.9998 9.71743   2
   2  -7   8 34.2279 10.1215   7
   2  -7   8 52.1800 6.38269  14
   2   7   8 47.9863 8.98363   2
   2  -7   8 57.7588 9.88975   2
  -2  -7  -8 41.3326 5.43580  10
   2  -7   9 10.2519 4.49896  14
   2  -7   9-7.26592 9.71456   7
  -2  -7  -9 3.82369 3.56629  10
   2  -7   9 3.79804 7.32075   2
   2  -7  10 24.9864 9.98789   7
  -2  -7 -10 9.46831 4.02330  10
   2  -7  10 11.0637 8.20544   2
   2  -7  11 78.1906 12.5663   2
   2  -8 -12 16.8868 8.47814  15
  -2  -8  12 6.35991 6.68294   7
  -2  -8  12 15.5003 4.19027  14
  -2  -8  11 452.335 22.6986   7
  -2  -8  11 483.145 20.3477  14
  -2  -8  10 5.15487 2.91365  14
  -2  -8  10 6.16747 5.58224   7
  -2  -8  10 5.68601 5.22300   2
   2  -8 -10 10.0346 6.93831  15
  -2  -8   9 403.824 19.2947   7
   2  -8  -9 423.069 20.3226  15
  -2  -8   9 422.761 17.7353  14
   2  -8  -9 411.774 18.3437  10
  -2  -8   9 394.376 18.5508   2
   2  -8  -8-0.68281 5.08786  15
  -2  -8   8 9.19559 3.25795  14
   2  -8  -8-3.44350 3.36673  10
  -2  -8   8 4.34797 4.07368   7
   2   8  -7 118.168 12.9601  18
   2   8  -7 163.277 8.61459  16
   2  -8  -7 153.874 10.8138  15
  -2  -8   7 148.172 8.89846  14
   2  -8  -7 162.234 11.3262   4
   2   8  -7 158.888 11.2897   4
   2   8  -7 140.798 8.08776  13
   2  -8  -7 151.143 9.56875  10
  -2  -8   7 150.896 10.0706   7
   2   8  -7 140.012 11.7273   7
   2   8  -6 2.95750 6.91925  18
   2  -8  -6-2.66597 4.76179  15
  -2   8   6 0.41317 3.48522  15
   2   8  -6-0.38097 2.02129  16
   2   8  -6 2.43036 4.80553   4
   2  -8  -6 9.89516 4.91093   4
   2   8  -6-1.57480 5.98057   7
  -2   8   6-0.92702 2.16882   5
   2   8  -6 2.40820 2.17253  13
  -2  -8   6 2.63419 2.26372  14
   2  -8  -6-3.51575 3.07699  10
  -2  -8   6-2.36913 3.79412   7
   2   8  -6 0.33605 2.10125   8
   2  -8  -5 29.9262 5.16962   2
   2   8  -5 27.8421 7.28738  18
   2  -8  -5 39.3602 5.28237  15
  -2   8   5 23.5818 3.29962   5
   2  -8  -5 25.0450 4.94204   4
   2   8  -5 32.2485 5.09614   4
   2   8  -5 37.1455 3.71529  13
  -2  -8   5 30.4854 3.77986  14
  -2  -8   5 32.8332 3.86677  11
  -2   8   5 26.3977 3.64571  10
   2   8  -5 20.2491 5.43265   7
   2   8  -5 23.0041 3.44984   8
   2  -8  -4 0.83858 1.50606   3
   2  -8  -4-2.66400 3.34173   2
   2   8  -4-2.66280 5.60516  18
   2  -8  -4 0.79288 2.97460  15
  -2   8   4-0.79194 2.04834   6
   2  -8  -4-1.54983 3.25469   4
   2   8  -4-0.30792 2.99516   4
   2   8  -4 0.30962 1.79532   5
  -2   8   4 0.31517 1.93086   5
   2   8  -4 4.83452 2.78195  14
  -2  -8   4-1.44792 1.94702  14
   2   8  -4 0.89891 1.77741  13
  -2  -8   4-0.33976 2.28805  11
  -2   8   4-0.35313 2.25178  10
   2  -8  -4-0.52667 2.83285   9
   2   8  -4 1.42475 3.45029   7
   2  -8  -3 46.8424 3.12804   3
   2   8  -3 36.6641 3.73553   2
   2  -8  -3 40.4094 3.89935   2
   2   8  -3 47.8317 3.22440   1
   2  -8  -3 41.4717 3.09664   1
   2   8  -3 54.2342 7.97175  18
   2  -8  -3 39.3590 4.10897  15
   2   8  -3 40.7279 4.12524  14
  -2  -8   3 47.6548 3.97666  14
   2  -8  -3 38.3347 3.76950   4
   2   8  -3 39.0081 4.55333   6
  -2   8   3 37.0207 3.76650   5
   2   8  -3 46.2730 4.03142   5
   2   8  -3 44.3422 3.87997   4
  -2  -8   3 45.8088 4.46543  11
   2   8  -3 34.2215 3.67027  10
  -2   8   3 44.4840 4.44931  10
   2  -8  -3 41.5642 3.20212   7
   2  -8  -3 38.9675 4.94469   9
   2   8  -3 37.8392 4.09988   7
  -2  -8   3 41.1388 4.31220   9
   2   8  -2 65.8785 3.75611   3
   2   8  -2 68.1020 4.00541   2
   2  -8  -2 63.1243 3.63373   3
   2  -8  -2 47.3863 3.46128   1
   2   8  -2 57.7592 3.67106   1
   2   8  -2 67.2629 8.05680  18
  -2  -8   2 64.8572 7.78957  18
   2  -8  -2 63.9218 4.65395  15
   2   8  -2 63.6335 4.68139  14
   2   8  -2 68.3893 5.36224   6
   2   8  -2 64.9475 4.71936   5
   2  -8  -2 59.6328 4.45867   5
  -2  -8   2 64.0826 4.54751  13
  -2  -8   2 67.1961 4.50188  14
  -2  -8   2 67.4806 5.26291  11
  -2   8   2 59.3589 5.25007  10
   2   8  -2 70.5142 4.69189  10
   2   8  -2 64.1026 4.38569   7
   2  -8  -2 63.2668 5.92562   9
  -2   8   2 58.3136 4.73984   8
  -2  -8   2 67.5087 5.34471   9
  -2  -8   1 505.877 15.1360   3
  -2   8   1 494.847 15.0621   3
   2   8  -1 475.835 15.8913   1
   2  -8  -1 491.819 15.7916   1
   2   8  -1 499.459 18.1703  17
   2  -8  -1 489.361 19.2429  18
  -2  -8   1 471.060 21.3257  18
   2   8  -1 502.200 16.6425  14
   2  -8  -1 502.701 16.8464  15
   2   8  -1 511.863 17.9502   6
   2   8  -1 487.315 15.7227   3
   2  -8  -1 476.028 15.5619   3
   2  -8  -1 514.583 17.4454   5
  -2  -8   1 458.606 16.8343  13
  -2  -8   1 495.236 16.5029  14
   2   8  -1 491.639 16.7971  10
   2  -8  -1 499.782 20.5370  11
  -2  -8   1 500.844 18.5073   9
  -2   8   1 509.421 19.1620   9
  -2   8   1 498.881 17.9094   8
   2  -8  -1 496.035 19.7154   9
   2   8  -1 513.583 15.8645   7
  -2  -8   0 579.689 17.2508   3
  -2   8   0 531.982 17.0644   3
   2  -8   0 542.580 20.8749  18
   2   8   0 587.930 19.6925  17
  -2  -8   0 590.426 24.0703  18
   2   8   0 563.033 17.7993  15
   2   8   0 567.551 18.0569  14
  -2  -8   0 555.285 17.1685   1
  -2   8   0 541.736 17.0381   1
   2   8   0 587.083 19.6168   6
   2  -8   0 573.365 19.3699   5
   2  -8   0 558.537 22.6009  11
  -2  -8   0 584.879 20.1392  10
   2   8   0 584.248 18.7920  10
  -2   8   0 563.526 21.1036   9
  -2   8   0 564.569 19.9799   8
  -2  -8  -1 360.837 12.0476   3
  -2   8  -1 314.353 11.6284   3
  -2  -8  -1 361.351 17.5896  18
   2   8   1 346.322 13.0058  17
   2   8   1 334.408 12.5349  15
   2   8   1 345.429 11.5502  14
  -2  -8  -1 334.992 11.8699   1
  -2   8  -1 321.349 11.6491   1
   2  -8   1 318.325 13.0821   5
  -2  -8  -1 328.897 14.2147   6
   2  -8   1 312.308 15.8431  11
  -2   8  -1 330.286 15.5801  11
  -2  -8  -1 346.330 14.0173  10
  -2   8  -1 334.729 13.7751   8
  -2   8  -1 325.130 14.7839   9
  -2  -8  -2 36.9946 4.06702   3
   2  -8   2 46.6576 6.93728   2
   2   8   2 46.1208 6.25025   2
  -2  -8  -2 39.4163 4.23748   1
  -2  -8  -2 32.9751 4.09496  17
  -2   8  -2 40.2688 5.68314  18
   2   8   2 40.8921 3.79601  17
   2   8   2 48.0919 4.81672  15
  -2  -8  -2 34.1064 4.31694   6
  -2   8  -2 38.9321 4.11376   3
  -2  -8  -2 37.6559 4.33176  10
  -2   8  -2 33.9579 5.88649  11
   2  -8   2 30.9109 5.26984  11
  -2   8  -2 32.5122 5.02218   9
  -2   8  -3 24.4044 4.32953   3
  -2  -8  -3 16.6665 4.23645   3
   2  -8   3 17.6298 6.52569   2
  -2  -8  -3 12.3492 4.40997   1
   2   8   3 10.1006 5.79449   2
  -2  -8  -3 12.1159 3.13994  17
  -2   8  -3 19.1192 5.78366  18
   2   8   3 9.16247 3.95744  15
  -2  -8  -3 15.6463 3.49356   6
   2  -8   3 18.1492 7.12540   7
   2   8   3 9.30647 2.47122  12
  -2   8  -3 9.69982 4.36822  11
  -2  -8  -3 15.6120 3.34108  10
   2  -8   3 10.0628 4.02491  11
   2  -8   3 10.1392 3.16547   8
   2  -8   4-0.59704 6.61591   2
   2   8   4 0.53195 6.27654   2
  -2   8  -4 2.53242 5.34144  18
   2   8   4 2.92953 4.22065  15
   2  -8   4 7.50168 7.26234   7
  -2  -8  -4 2.35073 2.97065   6
   2   8   4 6.83471 2.42470  12
  -2   8  -4 1.35829 4.65290  11
   2  -8   4 4.39460 3.80720  11
  -2  -8  -4 5.89678 2.88408  10
   2  -8   4 1.29886 2.89217   8
   2  -8   5 459.418 20.9983   2
   2   8   5 416.134 19.5364   2
  -2   8  -5 434.792 20.2083  18
   2   8   5 433.994 17.9965  15
   2   8   5 445.253 15.7606  12
  -2  -8  -5 446.010 18.2338  10
   2  -8   5 443.865 19.3408  11
  -2   8  -5 456.261 20.6839  11
  -2  -8  -5 404.974 17.3873   6
   2  -8   5 457.137 17.7880   8
   2  -8   5 440.345 21.7560   7
   2  -8   6-5.19777 7.16301   2
   2  -8   6 3.22204 3.37178  11
  -2  -8  -6 3.41111 3.14017  10
  -2  -8  -6 3.48048 3.07836   6
   2  -8   6-3.33878 7.59943   7
   2  -8   7 384.687 21.5260   7
   2  -8   7 408.560 18.8065  11
  -2  -8  -7 422.909 18.4680  10
   2  -8   7 448.084 21.7258   2
  -2  -8  -8 55.4818 6.47726  10
   2  -8   8 43.9546 10.6995   7
   2  -8   8 64.7644 7.38135  14
   2  -8   8 65.6721 7.25077  11
   2  -8   8 71.8720 10.1140   2
   2  -8   9 119.650 9.81437  14
   2  -8   9 91.0570 12.6444   7
  -2  -8  -9 109.810 9.08588  10
   2  -8  10 24.5362 5.55881  14
   2  -8  10 33.5652 10.2417   7
  -2  -8 -10 20.0646 5.37563  10
  -2  -9  12-3.24267 3.67310  14
  -2  -9  12-3.60859 6.67497   7
  -2  -9  11 69.1252 7.13750  14
   2  -9 -11 72.8386 10.3638  15
  -2  -9  11 57.8876 8.79659   7
  -2  -9  10 1.80753 3.32724  14
  -2  -9  10-3.84812 6.04892   7
   2  -9 -10-0.85620 6.81400  15
  -2  -9   9 209.707 11.7726  14
   2  -9  -9 223.919 14.3919  15
   2  -9  -9 209.052 12.6934  10
  -2  -9   9 207.006 13.1926   7
   2   9  -8 13.1134 7.82506  18
  -2  -9   8 13.5418 3.56807  14
   2  -9  -8 7.45334 3.61715  10
  -2  -9   8 17.4370 4.96747   7
   2  -9  -8 17.6035 5.91649  15
   2   9  -7 1074.35 42.1574  18
  -2  -9   7 1066.13 34.6763  14
   2  -9  -7 1030.26 36.1265  15
   2  -9  -7 1002.16 35.2195  10
  -2  -9   7 1046.45 35.3160   7
   2  -9  -6 12.1889 5.16166  15
  -2   9   6 0.42162 3.59542  15
  -2   9   6-0.69799 2.26780   5
  -2  -9   6-1.40110 2.22401  14
   2   9  -6 1.06262 2.46626  13
   2   9  -6 1.05826 7.18791  18
   2   9  -6-1.47733 2.57159   8
  -2   9   6 2.92810 2.62939  10
   2  -9  -5 14.0408 4.54670  15
  -2   9   5 13.7375 2.97907   5
  -2  -9   5 12.4235 2.98275  14
   2   9  -5 20.5110 3.20021  13
  -2  -9   5 18.4509 3.60611  11
  -2   9   5 13.6848 3.27608  10
   2   9  -5 10.5024 2.85349   8
   2  -9  -5 8.51402 3.82134   9
   2   9  -4 3.87463 6.29464  18
   2  -9  -4 2.92430 3.60103  15
  -2   9   4 0.60540 2.37980   6
  -2   9   4 1.07152 2.14291   5
  -2  -9   4 1.94213 2.20007  14
   2   9  -4 2.20359 2.21024  13
  -2   9   4 3.09412 2.64980  10
  -2  -9   4 2.38016 2.91441  11
   2  -9  -4 6.41371 3.57256   9
   2  -9  -3 170.686 7.32910   1
   2   9  -3 192.938 14.2203  18
   2  -9  -3 178.666 9.35089  15
  -2  -9   3 195.006 9.12975  14
   2   9  -3 204.931 10.4480   6
  -2   9   3 192.242 9.35096   5
   2   9  -3 182.481 9.07197   5
   2   9  -3 202.754 9.30767  10
  -2   9   3 209.180 10.1082  10
  -2  -9   3 191.255 9.86868  11
   2  -9  -3 189.652 11.1334   9
  -2  -9   3 199.100 10.3185   9
   2  -9  -2 7.91893 2.01885   1
  -2  -9   2 6.69059 5.73779  18
   2   9  -2 9.31283 5.55931  18
   2  -9  -2 13.3309 2.98477  15
   2   9  -2 7.52791 2.34655   5
   2   9  -2 10.1073 3.38412   6
   2   9  -2 15.8055 3.25493  14
  -2  -9   2 11.0848 2.27940  14
  -2  -9   2 11.1776 2.39122  13
  -2   9   2 15.7643 3.54561  10
  -2  -9   2 13.2715 3.24688  11
   2  -9  -2 9.17751 3.44108  11
   2   9  -2 10.5503 2.65211  10
   2  -9  -2 11.6108 3.81767   9
  -2  -9   2 17.3180 3.45483   9
  -2   9   2 7.76539 2.44424   8
  -2  -9   1 21.2776 1.94686   3
   2  -9  -1 31.3974 3.02972   1
   2   9  -1 17.1671 3.22602  17
  -2  -9   1 17.2892 6.57316  18
   2  -9  -1 18.9902 5.37515  18
   2  -9  -1 22.4102 3.19156  15
  -2  -9   1 18.2336 2.83555  13
   2   9  -1 24.5990 3.39390  14
  -2  -9   1 24.6786 2.86796  14
   2  -9  -1 18.4342 4.34437   9
  -2  -9   1 23.1518 3.89691   9
  -2   9   1 19.9971 3.44309   8
   2  -9  -1 18.8430 4.45252  11
   2   9  -1 21.6379 3.06409  10
   2   9  -1 23.8943 3.25447   5
   2   9  -1 26.1595 3.79656   6
   2  -9  -1 25.1325 3.29634   5
  -2  -9   0-1.02663 1.37250   3
   2  -9   0-0.34889 2.18153   5
   2   9   0-1.84494 2.48492   6
   2  -9   0-1.56155 4.19334  18
   2   9   0 3.28697 2.48065  17
  -2  -9   0 0.76041 6.05168  18
   2   9   0 0.48594 1.86067  14
   2  -9   0 11.6354 4.44749  11
  -2   9   0 2.04197 3.28635   9
  -2   9   0-0.82819 2.19705   8
   2   9   0-0.61047 1.92754  10
  -2  -9  -1 901.892 27.3989   3
   2  -9   1 925.866 29.7440   5
   2   9   1 924.041 29.3153  17
  -2  -9  -1 929.103 34.8039  18
   2  -9   1 867.474 33.1832  11
  -2  -9  -1 940.838 30.8483  10
   2   9   1 949.619 29.0642  10
  -2   9  -1 992.552 32.2109   9
  -2   9  -1 929.855 30.6413   8
  -2  -9  -2 108.535 6.42079   3
  -2   9  -2 120.469 9.24876  18
   2   9   2 116.819 6.60011  17
  -2  -9  -2 108.660 7.87421   6
   2  -9   2 105.728 7.11530   5
   2  -9   2 112.134 9.09672   2
   2  -9   2 96.0029 8.71153  11
  -2   9  -2 106.053 9.06258  11
  -2  -9  -2 110.988 7.60850  10
   2  -9   2 131.962 9.99602   7
  -2   9  -2 129.422 7.93194   8
  -2   9  -2 125.401 8.96252   9
   2  -9   3 891.688 31.9954   2
  -2   9  -3 942.467 33.4136  18
  -2  -9  -3 922.718 31.6427   6
  -2  -9  -3 918.056 30.1823   3
   2   9   3 972.258 29.4932  12
  -2  -9  -3 949.521 31.7612  10
  -2   9  -3 927.874 33.8216  11
   2  -9   3 947.713 33.8446  11
   2  -9   3 890.190 32.8544   7
  -2   9  -3 930.701 32.8073   9
   2   9   4 72.8584 6.88309  15
  -2  -9  -4 72.0223 6.65674   6
   2  -9   4 54.6778 9.00253   7
   2   9   4 65.6901 5.06187  12
  -2   9  -4 57.4480 7.77691  11
   2  -9   4 54.1549 6.87396  11
  -2  -9  -4 62.9962 6.44483  10
  -2   9  -4 59.8303 8.57854  18
   2   9   5 2.52834 2.16707  12
  -2  -9  -5 4.28910 3.25175   6
   2  -9   5 7.47727 8.04438   7
   2   9   5 3.26991 4.43082  15
   2  -9   5 0.67927 3.84737  11
  -2  -9  -5 9.30660 3.67454  10
   2  -9   6 8.93676 3.99394  11
  -2  -9  -6 6.83097 3.56746  10
  -2  -9  -6 14.1503 3.91767   6
   2  -9   6 4.96465 7.81619   7
  -2  -9  -7 86.2643 7.99800  10
   2  -9   7 63.4886 7.31254  11
   2  -9   7 64.8991 10.5648   7
   2  -9   8 2.07722 4.01498  14
   2  -9   8-10.6700 9.19829   7
   2  -9   8 1.43797 3.81467  11
  -2  -9  -8 0.69294 3.46623  10
   2  -9   9 2.12025 4.50757  14
   2  -9   9 8.21050 9.38808   7
  -2  -9  -9 3.64490 3.92211  10
   2  -9  10 7.51822 8.54764   7
   2  -9  10-0.71178 4.83464  14
   2  10 -11 203.030 18.6806  18
  -2 -10  11 213.415 12.5310  14
   2 -10 -11 195.426 15.6262  15
  -2 -10  10 1.26204 3.20574  14
   2  10 -10 2.77157 7.84658  18
  -2 -10  10 0.76705 5.51053   7
   2 -10 -10 5.26255 7.15069  15
   2  10  -9 328.257 22.7432  18
   2 -10  -9 347.560 18.7508  15
  -2 -10   9 385.178 16.9378  14
   2 -10  -9 333.451 17.2892  10
  -2 -10   9 357.442 17.9634   7
   2  10  -8-1.25576 8.08414  18
  -2 -10   8 1.14071 2.62082  14
   2 -10  -8 5.79343 5.28070  15
   2 -10  -8-1.98957 3.70908  10
  -2 -10   8 4.98608 4.57812   7
  -2 -10   7 12.8098 3.63707  14
   2  10  -7 3.56409 7.58119  18
   2 -10  -7 11.0536 5.27775  15
  -2  10   6 109.225 7.10974   5
  -2 -10   6 99.0418 7.42137  14
   2 -10  -6 100.692 8.80953  15
   2  10  -6 101.850 12.5269  18
   2  10  -6 110.369 7.08123   8
   2  10  -5 226.225 16.8123  18
  -2 -10   5 202.300 10.5216  14
   2 -10  -5 199.353 11.3577  15
  -2  10   5 208.233 10.1847   5
  -2  10   5 210.878 10.3385  10
   2 -10  -5 198.669 12.2631   9
   2  10  -5 198.911 10.1590   8
   2  10  -4 13.5230 8.03061  18
   2 -10  -4 17.9488 4.64926  15
   2  10  -4 12.8821 4.19834   6
  -2  10   4 13.9738 3.26438   5
  -2 -10   4 16.9963 3.24544  14
  -2  10   4 16.7855 3.66128  10
  -2 -10   4 20.3895 4.02981  11
   2 -10  -4 17.3464 4.70457   9
   2  10  -3 6.84621 7.33967  18
   2 -10  -3 3.74588 3.31510  15
   2  10  -3 4.01568 2.58862   5
   2  10  -3 5.38309 3.18280   6
  -2 -10   3 6.72190 2.33888  14
   2  10  -3 4.41865 2.76613  10
  -2  10   3 5.30268 2.95316  10
  -2 -10   3 2.39192 3.08258  11
  -2 -10   3 6.68873 3.34606   9
   2 -10  -3 7.02647 3.83333   9
  -2 -10   2-2.40981 5.85746  18
   2 -10  -2 4.45912 2.94073  15
   2  10  -2 0.45866 3.08903   6
   2  10  -2-0.40097 2.37881   5
  -2 -10   2 1.99222 1.76207  14
  -2 -10   2 2.23270 1.87125  13
   2  10  -2 4.95203 2.57954  10
  -2 -10   2-1.47240 2.84618  11
   2 -10  -2 0.72703 3.74884  11
  -2  10   2 3.71818 3.07576  10
   2 -10  -2 2.57185 3.68484   9
  -2 -10   2-2.07219 3.30358   9
  -2  10   2 2.15943 2.50460   8
   2 -10  -1 160.681 11.3291  18
   2  10  -1 182.753 9.75619  17
  -2 -10   1 171.890 13.2947  18
   2 -10  -1 174.961 8.27382  15
   2  10  -1 162.403 9.26789   6
   2  10  -1 191.063 9.42969   5
   2 -10  -1 187.398 9.06004   5
  -2 -10   1 184.323 8.29128  14
  -2 -10   1 173.807 8.46916  13
   2  10  -1 176.475 8.76713  10
   2 -10  -1 159.833 11.4727  11
  -2 -10   1 150.596 9.72160   9
  -2  10   1 190.492 9.86663   8
   2 -10  -1 182.357 11.4133   9
  -2 -10   0 65.3352 9.41679  18
   2 -10   0 50.2398 7.03804  18
   2  10   0 55.0349 5.15401  17
   2 -10   0 56.6646 4.33413  15
  -2 -10   0 53.9162 4.66995  13
   2 -10   0 54.5881 7.04938  11
   2  10   0 47.6263 4.51865  10
  -2  10   0 53.7324 6.33914   9
  -2  10   0 51.4604 5.18130   8
   2  10   0 59.2014 5.34406   6
   2 -10   0 54.1874 4.98575   5
  -2 -10  -1 446.064 22.4097  18
   2  10   1 501.142 17.4758  17
   2 -10   1 451.850 21.0727  11
  -2 -10  -1 448.021 18.5777  10
   2  10   1 510.297 17.3455  10
  -2  10  -1 434.491 18.1403   8
  -2  10  -1 475.947 19.6596   9
   2 -10   1 462.070 17.6456   5
   2  10   2 21.5996 3.47911  17
   2 -10   2 23.1683 3.98581   5
  -2 -10  -2 25.1459 4.42834  10
  -2  10  -2 15.1182 4.96851  11
   2 -10   2 26.6828 5.67001  11
  -2  10  -2 26.7947 5.29947   9
  -2  10  -2 22.6941 4.20480   8
  -2  10  -3 29.2757 6.90552  18
  -2 -10  -3 28.0929 5.12246   6
   2 -10   3 30.5649 4.46634   5
  -2  10  -3 19.7164 5.65440  11
  -2 -10  -3 30.5863 5.08969  10
   2 -10   3 30.7695 6.12365  11
  -2  10  -3 36.5873 6.15680   9
   2  10   3 26.1585 3.72921  12
   2  10   4 355.867 13.8298  12
  -2 -10  -4 326.935 15.7580   6
  -2 -10  -4 335.767 16.0359  10
   2 -10   4 358.906 17.5828  11
  -2 -10  -5 78.3146 7.29057   6
   2 -10   5 71.0224 7.77716  11
  -2 -10  -5 72.0421 7.32857  10
  -2 -10  -6 79.4238 8.07224  10
   2 -10   6 97.2485 8.73809  11
  -2 -10  -7 164.816 11.7427  10
   2 -10   7 188.898 12.4641  14
   2 -10   7 205.359 12.7801  11
  -2 -10  -8 14.9777 4.92935  10
   2 -10   8 17.1075 4.80699  11
   2 -10   8 15.9494 5.85576  14
  -2 -10  -9 78.5649 8.67383  10
   2 -10   9 85.6640 8.98017  14
   2 -10   9 83.3306 8.66203  11
   2 -11 -11 17.4804 8.60468  15
   2  11 -11 25.3341 10.5562  18
   2 -11 -10-4.47449 6.71487  15
   2  11 -10-2.88029 9.00501  18
  -2 -11  10-1.31694 3.54216  14
  -2 -11   9 89.1082 7.89107  14
   2 -11  -9 100.037 10.7184  15
   2 -11  -9 94.2920 9.23938  10
   2  11  -9 92.5541 13.4401  18
  -2 -11   8 11.9475 3.92908  14
   2  11  -8 14.4475 8.61848  18
   2 -11  -8 8.20511 6.46969  15
   2  11  -7 482.409 27.1848  18
  -2 -11   7 484.134 20.1350  14
   2 -11  -7 523.513 21.9149  15
  -2 -11   6 45.4760 5.46270  14
   2 -11  -6 57.0992 7.12409  15
  -2  11   6 60.7980 5.52828   5
   2  11  -6 61.5266 10.8695  18
   2 -11  -6 59.8384 7.41628   9
   2  11  -6 51.5031 5.23169   8
   2 -11  -5 5.24110 4.30371  15
  -2  11   5 10.8738 3.17948   5
  -2 -11   5 9.16719 3.05506  14
   2  11  -5 4.63704 7.87711  18
   2 -11  -5 7.91419 4.36735   9
   2  11  -5 7.96822 3.21193   8
  -2  11   4 468.482 18.3531   5
   2 -11  -4 500.176 19.0136  15
  -2 -11   4 463.711 18.2410  14
   2  11  -4 468.515 25.4059  18
   2 -11  -4 488.021 21.2441   9
   2  11  -3 154.783 14.0446  18
   2 -11  -3 139.008 8.41510  15
  -2 -11   3 129.968 7.75599  14
   2  11  -3 147.733 9.67994   6
   2  11  -3 127.837 8.15558   5
  -2 -11   3 142.032 9.50510  11
  -2  11   3 142.681 8.90868  10
  -2 -11   3 127.158 9.23394   9
   2 -11  -3 156.748 10.9336   9
  -2 -11   2 47.3099 8.82728  18
   2 -11  -2 46.8989 8.06151  18
  -2 -11   2 64.8362 4.96306  13
  -2 -11   2 52.7482 4.78420  14
   2  11  -2 49.1104 5.89537   6
   2  11  -2 59.6131 5.50407   5
   2  11  -2 48.5870 5.02838  10
  -2 -11   2 63.1754 6.64479  11
   2 -11  -2 44.7441 7.14494  11
  -2  11   2 61.6654 6.25020  10
   2 -11  -2 47.3422 6.62594   9
  -2  11   2 55.6532 5.54894   8
  -2 -11   2 67.9060 6.77154   9
   2  11  -1 142.286 8.90809  17
  -2 -11   1 154.867 13.2659  18
  -2 -11   1 142.083 7.69598  13
  -2 -11   1 149.559 7.60779  14
   2  11  -1 152.867 9.14727   6
   2  11  -1 154.274 8.76850   5
   2 -11  -1 163.671 8.71132   5
   2  11  -1 153.710 8.26203  10
   2 -11  -1 133.324 10.9835  11
  -2 -11   1 138.216 9.47438  11
  -2  11   1 137.892 9.19680  10
  -2 -11   1 152.975 9.95699   9
  -2  11   1 127.972 8.58802   8
  -2 -11   0 15.1510 7.98501  18
   2  11   0 23.9751 4.00520  17
  -2 -11   0 23.5620 3.48175  13
   2 -11   0 29.1168 6.18554  11
  -2 -11   0 30.0241 5.31969   9
  -2  11   0 24.9993 5.32818   9
  -2  11   0 27.3354 4.50600   8
   2  11   0 23.4521 3.63580  10
   2 -11   0 20.4173 3.70049   5
   2  11   0 22.3809 3.80262   5
   2  11   0 27.6415 4.40126   6
  -2 -11  -1 269.899 17.8675  18
   2  11   1 283.493 12.4771  17
   2 -11   1 293.213 16.4857  11
   2  11   1 302.643 12.5418  10
  -2  11  -1 311.097 15.1897   9
  -2  11  -1 311.461 14.0295   8
   2  11   1 289.641 13.0744   6
   2 -11   1 295.894 13.0941   5
   2  11   2 93.9072 6.23060  17
  -2  11  -2 77.2700 6.78157   8
   2 -11   2 83.5708 8.97548  11
  -2 -11  -2 72.7113 7.31005  10
  -2 -11  -3 418.315 18.2495  10
   2 -11   3 368.589 19.1054  11
  -2 -11  -4 230.291 13.2262  10
   2 -11   4 223.910 13.9634  11
  -2 -11  -5 132.591 9.76208   6
   2 -11   5 140.736 10.7384  11
  -2 -11  -5 134.746 10.3878  10
  -2 -11  -6 2.92848 3.93892  10
   2 -11   6 3.79401 4.02689  11
  -2 -11  -7 56.1773 7.40028  10
   2 -11   7 62.1144 7.53168  11
   2 -11   7 59.2051 7.62307  14
   2 -11   8 3.06071 4.17206  11
  -2 -11  -8 4.01219 4.37512  10
   2 -11   8 3.78269 4.73138  14
   2 -11   9 13.3017 5.05107  11
   2 -11   9 15.3716 5.69857  14
   2  12 -10 29.7476 11.2789  18
   2 -12 -10 47.3908 9.27426  15
  -2 -12  10 34.2298 5.76040  14
   2  12  -9 264.995 21.2242  18
  -2 -12   9 278.418 14.5997  14
   2 -12  -9 262.335 16.6577  15
   2  12  -8 12.3856 8.95798  18
   2 -12  -8 13.7288 6.96381  15
  -2 -12   8 24.9955 4.75055  14
   2 -12  -7-2.75037 5.80015  15
  -2 -12   7-0.58901 2.85288  14
   2  12  -7-5.29335 8.83475  18
   2 -12  -7 1.67185 4.61626   9
   2 -12  -6 110.067 9.34231  15
  -2 -12   6 100.594 7.72833  14
  -2  12   6 92.8627 7.12028   5
   2  12  -6 101.892 13.1909  18
   2 -12  -6 85.2041 8.93437   9
   2 -12  -5-2.70885 4.03681  15
  -2  12   5-2.38054 2.59540   5
  -2 -12   5 0.50899 2.70063  14
   2  12  -5 4.87267 7.91574  18
   2 -12  -5-0.77736 3.88861   9
   2  12  -5-0.48427 2.49708   8
  -2 -12   4 172.153 9.71894  14
   2  12  -4 177.455 15.8844  18
   2 -12  -4 171.080 12.1108   9
  -2  12   4 187.682 10.2003   5
   2  12  -3 140.493 8.91410   5
  -2 -12   3 139.651 8.21393  14
   2 -12  -3 170.363 11.7766   9
  -2 -12   2 39.3839 4.09064  13
  -2 -12   2 39.8276 4.15764  14
   2  12  -2 31.7469 4.67595   5
   2 -12  -2 27.0666 6.66995  11
   2  12  -2 40.6026 4.86990  10
  -2 -12   2 42.5793 6.03381  11
   2 -12  -2 36.2168 6.46771   9
  -2 -12   2 45.0243 6.30814   9
  -2  12   2 32.1681 4.82551   8
   2  12  -1 252.713 12.6726  17
  -2 -12   1 258.546 11.3066  13
  -2 -12   1 262.830 11.0860  14
   2  12  -1 262.585 12.6221   5
   2  12  -1 240.637 11.6154  10
   2 -12  -1 270.831 16.3202  11
  -2 -12   1 263.108 14.0812  11
  -2 -12   1 255.151 14.0083   9
  -2  12   1 268.241 13.1923   8
   2  12   0 0.44780 2.96322  17
  -2 -12   0 0.74952 2.31973  13
   2 -12   0 0.87526 4.51295  11
  -2 -12   0-1.33851 3.69582   9
   2  12   0 2.76309 2.70371  10
  -2  12   0-1.07833 3.08981   8
   2  12   0-0.93747 2.81121   5
   2  12   1 297.885 13.4325  17
   2 -12   1 324.378 17.9249  11
  -2  12  -1 340.170 15.3541   8
   2  12   1 345.620 14.5903   5
  -2  12  -2 30.0269 4.86946   8
   2 -12   2 42.4504 7.11228  11
  -2 -12  -2 46.0850 6.09382  10
  -2  12  -3 12.6389 3.78548   8
   2 -12   3 19.9969 5.52586  11
  -2 -12  -3 12.0705 4.25071  10
  -2 -12  -4 4.97650 3.92671  10
   2 -12   4 0.81735 4.27662  11
  -2 -12  -5 183.071 12.7311  10
   2 -12   5 218.067 13.7336  11
  -2 -12  -6 104.351 9.61301  10
   2 -12   6 94.3037 9.58355  11
   2 -12   6 110.307 9.72418  14
  -2 -12  -7 53.4705 7.56123  10
   2 -12   7 42.7914 6.76784  11
   2 -12   7 49.2944 7.31893  14
   2 -12   8 36.9746 6.64134  11
  -2 -12  -8 36.7322 6.74863  10
   2 -12   8 42.5241 7.14020  14
   2 -12   9 157.222 11.8942  11
   2  13 -10-6.13380 9.96442  18
   2 -13 -10 3.70030 8.01491  15
   2  13  -9 141.032 16.7674  18
  -2 -13   9 130.309 9.89156  14
   2  13  -8 10.0376 9.49297  18
   2 -13  -8 12.9102 5.77282   9
  -2 -13   8 9.76640 3.74178  14
  -2 -13   7 264.605 13.8805  14
   2 -13  -7 275.432 16.6848   9
   2  13  -7 272.499 21.0379  18
  -2 -13   6 301.572 14.7709  14
   2  13  -6 302.845 21.7904  18
   2 -13  -6 324.261 17.7610   9
  -2 -13   5 157.369 9.64382  14
  -2  13   5 156.708 9.67564   5
   2  13  -5 161.482 15.8171  18
   2 -13  -5 180.114 12.6372   9
   2  13  -5 150.153 9.55853   8
  -2  13   4 39.1612 5.04819   5
  -2 -13   4 39.6626 4.64660  14
   2  13  -4 21.8190 8.89353  18
   2 -13  -4 37.4063 6.64768   9
  -2 -13   3 187.030 9.85510  14
   2  13  -3 178.444 10.4594   5
   2 -13  -3 164.715 13.0229  11
   2 -13  -3 185.414 12.9221   9
   2  13  -2 11.5696 3.93261  17
  -2 -13   2 8.04695 2.54614  14
   2 -13  -2 2.82723 4.79003  11
   2 -13  -2 9.18464 4.61385   9
  -2 -13   2 4.23966 3.70024   9
  -2  13   2 7.29363 3.25744   8
   2  13  -2 1.59452 2.86361   5
   2  13  -1 4.21501 3.42511  17
   2 -13  -1-0.94573 4.65729  11
  -2 -13   1 5.71767 4.28756   9
  -2  13   1 5.14152 3.64417   8
   2  13  -1 3.63438 3.11543   5
   2  13   0 26.9264 4.37211  17
   2 -13   0 36.5913 7.18021  11
  -2 -13   0 32.6970 6.11229   9
  -2  13   0 22.0883 4.49106   8
   2  13   0 37.5448 4.85440   5
   2 -13   1 188.147 13.5693  11
  -2 -13  -1 164.362 11.6649   9
  -2  13  -1 185.809 10.9779   8
   2  13   1 173.205 10.0563   5
   2 -13   2-0.90462 4.30783  11
  -2  13  -2-2.38155 3.45247   8
   2  13   2 0.50834 2.69719   5
  -2  13  -3 204.406 11.7669   8
   2 -13   3 193.474 13.6647  11
  -2 -13  -3 185.047 12.4251  10
  -2 -13  -4 32.7822 6.08214  10
   2 -13   4 27.5756 6.05269  11
  -2 -13  -5 130.057 10.9917  10
   2 -13   5 160.423 12.2654  11
   2 -13   5 153.138 11.6119  14
  -2 -13  -6 126.436 10.9460  10
   2 -13   6 98.2559 9.85995  11
   2 -13   6 124.624 10.5322  14
   2 -13   7 0.82040 4.64591  11
  -2 -13  -7 4.41066 5.17487  10
   2 -13   7 5.58225 5.46287  14
   2 -13   8 2.44773 4.44801  11
   2  14  -9 84.1554 14.7951  18
   2 -14  -9 81.2539 10.2292   9
   2  14  -8 5.92427 9.26121  18
   2 -14  -8 1.94233 5.00836   9
  -2 -14   8 4.04048 3.47351  14
   2  14  -7-5.70874 10.0171  18
   2 -14  -7 2.81102 4.76016   9
  -2 -14   7 3.83103 3.34086  14
  -2 -14   6 69.5061 6.83562  14
   2  14  -6 81.0342 13.1014  18
   2 -14  -6 68.4177 8.85006   9
  -2  14   5-0.55430 3.36036   5
   2  14  -5 10.5533 8.41172  18
   2 -14  -5 2.69459 4.83128   9
   2  14  -5-1.70724 3.18272   8
  -2 -14   5 2.77980 2.90854  14
  -2 -14   4 113.100 7.94081  14
   2  14  -4 110.512 8.53630   8
   2 -14  -4 100.121 10.0696   9
  -2 -14   3 33.2890 4.37090  14
   2 -14  -3 30.1575 6.94939  11
   2 -14  -3 42.9122 7.08913   9
  -2  14   3 43.3524 5.85258   8
   2  14  -3 32.1553 5.11367   5
   2  14  -2 40.0616 5.80345  17
   2 -14  -2 37.5721 7.56823  11
   2 -14  -2 33.2774 6.76350   9
  -2 -14   2 24.5778 5.63402   9
  -2  14   2 33.1186 5.13363   8
   2  14  -2 40.7202 5.58451   5
   2  14  -1 323.787 15.5227  17
   2  14  -1 339.187 15.7386   5
  -2  14   1 362.082 16.5927   8
  -2 -14   1 340.385 17.8603   9
   2 -14  -1 349.212 19.9642  11
   2  14   0 22.9311 4.34580   5
  -2 -14   0 29.0989 6.14101   9
  -2  14   0 28.0196 4.97238   8
   2 -14   0 26.1373 6.68761  11
   2  14   1 12.4225 3.71436   5
  -2 -14  -1 20.2138 5.54815   9
  -2  14  -1 17.6029 4.28298   8
   2  14   2 51.0399 5.82703   5
  -2 -14  -2 50.6862 7.52301   9
  -2  14  -2 51.9237 6.18702   8
   2 -14   2 58.2437 8.55552  11
   2  14   3 1.11094 2.82179   5
  -2  14  -3 0.64368 3.81835   8
   2 -14   3 1.85175 4.55855  11
   2 -14   4 26.1263 6.05101  11
  -2 -14  -4 24.9105 5.89694  10
   2 -14   4 24.3258 6.15063  14
  -2 -14  -5-0.84770 4.49762  10
   2 -14   5 5.29833 5.12047  11
   2 -14   5-0.76896 4.30053  14
   2 -14   6 111.665 10.5625  11
  -2 -14  -6 109.371 10.7029  10
   2 -14   6 128.938 10.9216  14
   2 -14   7 12.7101 5.51625  11
   2  15  -8 16.6351 11.0473  18
   2 -15  -8 26.3871 6.80789   9
  -2 -15   8 26.3612 5.45814  14
   2  15  -7-2.92252 9.58290  18
   2 -15  -7 1.97618 5.01939   9
  -2 -15   7 1.97884 3.49988  14
  -2 -15   6 117.250 8.82788  14
   2  15  -6 125.673 15.3227  18
   2 -15  -6 96.9310 10.7352   9
  -2 -15   5 33.6069 5.10395  14
  -2  15   5 28.9272 5.14434   5
   2 -15  -5 40.3044 7.59826   9
   2  15  -5 40.9364 5.76622   8
  -2 -15   4 70.6403 6.57664  14
   2 -15  -4 73.3480 9.97387  11
   2 -15  -4 59.3076 8.56073   9
   2  15  -4 66.1469 7.07289   8
   2 -15  -3 17.2319 6.61419  11
   2 -15  -3 23.9090 6.56680   9
  -2  15   3 14.5489 4.49851   8
   2  15  -2 5.06555 3.84471  17
   2  15  -2 9.79839 3.79689   5
   2 -15  -2 8.66118 5.18086   9
  -2 -15   2 7.46341 4.75726   9
  -2  15   2 7.70663 3.73026   8
   2 -15  -2 15.1615 6.63822  11
   2  15  -1-0.60081 3.00548   5
  -2 -15   1 5.04347 4.81718   9
  -2  15   1 0.65418 3.32317   8
   2 -15  -1 1.07844 5.30966  11
   2  15   0 97.7864 7.93847   5
  -2 -15   0 101.698 10.0412   9
  -2  15   0 80.8277 7.95184   8
   2 -15   0 91.6873 10.9803  11
   2  15   1-1.15292 2.79199   5
   2 -15   1 3.10959 5.34449  11
  -2 -15  -1 1.72557 4.57761   9
  -2  15  -1-0.66833 3.54593   8
   2  15   2 19.6635 4.25063   5
   2 -15   2 26.1596 6.91211  11
  -2 -15  -2 18.8085 5.95056   9
  -2  15  -2 16.1069 4.74038   8
   2 -15   2 24.0754 5.66633  14
   2  15   3 13.5323 3.93200   5
   2 -15   3 25.6376 5.69425  14
  -2  15  -3 22.4321 5.26897   8
   2  15   4 91.6426 8.04428   5
   2 -15   4 92.5256 10.2036  11
   2 -15   4 108.891 9.89011  14
  -2 -15  -5 158.629 12.6491  10
   2 -15   5 154.596 12.6042  11
   2 -15   5 162.184 12.0934  14
  -2 -15  -6 156.146 13.1628  10
   2 -15   6 167.645 13.0017  11
   2 -15   6 165.536 12.5931  14
   2 -16  -7 15.6086 6.31806   9
  -2 -16   7 17.6430 4.88752  14
   2  16  -6 7.20578 8.92149  18
   2 -16  -6 9.23234 5.51910   9
  -2 -16   6 2.55920 3.53539  14
   2 -16  -5 6.11493 5.48193   9
   2  16  -5 2.61081 3.46314   8
  -2 -16   5-1.19790 3.22180  14
   2 -16  -4 119.919 11.7000   9
   2  16  -4 115.334 9.28359   8
   2 -16  -4 93.0844 11.5075  11
   2  16  -3 37.9463 6.42858  17
   2 -16  -3 40.6770 7.60092   9
  -2  16   3 44.7959 6.43175   8
   2 -16  -3 40.0226 8.16135  11
   2  16  -2 285.807 14.8964   5
  -2  16   2 292.311 15.2479   8
   2 -16  -2 277.690 17.8904   9
  -2 -16   2 290.304 17.2728   9
   2 -16  -2 270.847 18.9962  11
   2  16  -1 127.081 9.64955   5
  -2  16   1 145.514 10.6425   8
  -2 -16   1 139.592 12.1069   9
   2 -16  -1 150.823 13.8579  11
   2  16   0 6.87571 3.83488   5
  -2 -16   0 5.45972 5.02919   9
  -2  16   0 10.5170 4.30031   8
   2 -16   0 7.87208 6.29270  11
   2  16   1 6.74378 3.43714   5
   2 -16   1 17.4411 6.88795  11
  -2 -16  -1 4.59966 5.27739   9
  -2  16  -1 12.6870 4.32481   8
   2  16   2-0.61198 3.15559   5
   2 -16   2 3.16698 5.02710  11
  -2 -16  -2 3.77650 5.14653   9
  -2  16  -2 0.70670 3.74965   8
   2 -16   2 2.03066 4.23252  14
   2  16   3 0.62166 3.51999   5
   2 -16   3-3.04376 5.74475  11
  -2 -16  -3-0.98505 4.92746   9
  -2  16  -3-5.00373 4.24029   8
   2 -16   3 9.41929 5.08553  14
   2 -16   4 1.96116 4.90505  11
   2  16   4-1.27591 3.82609   5
   2 -16   4-0.76846 4.80498  14
   2 -16   5-0.94495 5.47937  11
   2  16   5 2.63551 3.82063   5
   2 -16   5 0.80951 4.90750  14
  -2 -17   6 159.727 10.8530  14
   2 -17  -5 16.1181 6.41105   9
   2  17  -5 28.3599 5.44560   8
   2 -17  -5 38.2474 8.61387  11
   2 -17  -4 81.4388 10.4610   9
  -2  17   4 90.0457 8.54613   8
   2  17  -4 72.2135 7.89864   8
   2 -17  -4 73.3315 10.6239  11
   2 -17  -3 3.22384 5.11768   9
  -2  17   3 2.10591 4.16453   8
   2 -17  -3 2.42522 5.67435  11
   2  17  -2 1.37145 3.73806   5
  -2  17   2 0.71449 3.84324   8
   2 -17  -2 2.42093 5.66402  11
   2  17  -1 6.74220 3.95797   5
  -2 -17   1 10.5410 5.68665   9
  -2  17   1 4.36850 3.81231   8
   2 -17  -1 3.60965 6.47387  11
   2  17   0 21.1479 4.73268   5
  -2 -17   0 11.6295 5.76608   9
  -2  17   0 22.8140 5.46303   8
   2 -17   0 7.07081 6.60588  11
   2  17   1 52.0835 6.49350   5
  -2 -17  -1 71.3584 9.39775   9
  -2  17  -1 57.0689 7.34418   8
   2 -17   1 62.8456 9.81424  11
   2  17   2 84.1119 8.01424   5
   2 -17   2 79.1359 10.4800  11
  -2 -17  -2 79.6776 9.98039   9
  -2  17  -2 92.7486 8.96189   8
   2  17   3 15.6623 4.70250   5
   2 -17   3 24.2501 7.23115  11
  -2 -17  -3 10.2791 6.30806   9
  -2  17  -3 10.4671 4.96101   8
   2 -17   3 12.6061 5.29929  14
   2 -17   4 82.9357 9.19215  14
   2 -17   4 69.0482 9.83839  11
   2  18  -4 55.7628 7.35435   8
  -2  18   4 57.0128 7.39942   8
  -2  18   3 24.8994 5.63091   8
   2  18  -3 19.5322 5.62022   8
   2 -18  -3 10.1745 6.76661  11
  -2  18   2 158.978 11.7791   8
   2 -18  -2 165.037 15.6903  11
   2  18  -1 21.1952 4.93153   5
  -2  18   1 7.58232 4.60975   8
   2 -18  -1 10.0143 6.92149  11
   2  18   0 2.77660 4.20860   5
  -2 -18   0-1.02409 5.72773   9
  -2  18   0 4.59592 4.33757   8
   2 -18   0 2.45451 6.94913  11
  -2 -18  -1 1.03490 5.56653   9
   2 -18   1-2.37312 6.38230  11
  -2 -18  -2 48.1944 8.79541   9
   2 -18   2 28.5483 7.88341  11
  -3   0  13 42.5221 8.41484   7
   3   0 -13 49.4490 8.66189  15
  -3   0  12-6.60025 6.52531   7
  -3   0  12 1.14388 2.86098  16
   3   0 -12-0.79798 6.35072  15
   3   0 -12 3.30970 8.72565   4
   3   0 -11 300.031 16.8808  15
  -3   0  11 351.846 15.3087  16
  -3   0  11 301.424 17.0025   7
   3   0 -11 320.415 19.8395   4
   3   0 -10-1.73416 6.77172   4
  -3   0  10-6.91369 5.18768   7
   3   0 -10 3.91419 4.65101  15
  -3   0  10-0.98986 2.51441  16
   3   0  -9 6.81058 6.50347   4
  -3   0   9 14.9636 3.52471  16
  -3   0   9 18.7922 4.66985  15
  -3   0   9 14.3094 5.32471   7
   3   0  -8-1.00766 3.80662  15
  -3   0   8-2.45309 3.63344  15
  -3   0   8 0.41296 1.86214  16
   3   0  -8-1.30445 5.19076   4
   3   0  -8-1.15988 2.14543  14
   3   0  -8 4.60166 5.90990   2
   3   0  -8-9.17535 5.95704   7
  -3   0   7 55.7394 4.69218  16
   3   0  -7 45.5033 5.36726  15
   3   0  -7 53.8065 4.02472  14
   3   0  -7 53.3316 6.57266   4
   3   0  -7 59.5397 6.64900   7
   3   0  -7 46.6585 6.58439   2
   3   0  -6-1.26848 3.42687   2
   3   0  -6 0.82319 3.35562   7
   3   0  -6 2.19686 2.21977  15
  -3   0   6-1.65228 1.60068  16
   3   0  -6-4.60208 3.42908   4
   3   0  -6-0.46302 1.43319  14
   3   0  -6-0.88235 1.03991  10
   3   0  -6-0.33648 1.70937   3
  -3   0   5 245.527 9.97044  16
   3   0  -5 223.416 10.0371  15
   3   0  -5 238.006 7.18904  12
   3   0  -5 246.112 9.14481  14
   3   0  -5 237.898 10.7585   2
   3   0  -5 256.541 10.2145   3
   3   0  -5 235.460 10.7456   7
   3   0  -4-0.22684 1.38971  17
  -3   0   4-0.74863 1.12519  16
   3   0  -4 1.89748 1.69493  15
   3   0  -4-0.21625 0.61803  12
   3   0  -4-0.23401 1.34107  13
   3   0  -4 0.51726 1.35301   3
   3   0  -4-0.57079 1.26184   1
  -3   0   4-0.43852 0.86167   6
   3   0  -3 1766.93 49.8578   1
   3   0  -3 1750.37 49.0359  17
  -3   0   3 1735.40 49.1659  16
   3   0  -3 1776.00 47.4573  12
   3   0  -3 1731.14 49.1196  13
   3   0  -3 1663.75 48.2427  11
   3   0  -3 1727.70 49.5415   3
  -3   0   3 1774.38 49.6937   3
   3   0  -2-0.26309 1.09119   1
  -3   0   2-1.34985 1.50195   1
  -3   0   2-0.34098 0.79774  16
  -3   0   2-0.13307 0.79811  12
   3   0  -2-0.11731 0.82338  12
  -3   0   2 0.20126 1.02233  13
   3   0  -2 0.37339 1.06990  17
  -3   0   2 0.20206 1.34900  17
   3   0  -2-0.30970 0.89792  16
   3   0  -2 0.62699 1.09141  11
  -3   0   2-0.24243 1.09310   3
   3   0  -2-0.23835 1.49036   3
  -3   0   1 1099.23 32.8412   1
   3   0  -1 1079.21 33.2283   1
  -3   0   1 1072.88 31.4171  12
   3   0  -1 1089.25 31.9757  18
  -3   0   1 1123.01 31.2443  16
  -3   0   1 1154.72 32.3077  17
   3   0  -1 1118.12 31.0486  16
  -3   0   1 1137.34 32.4368  11
   3   0  -1 1070.81 31.6075  11
  -3   0   1 1124.92 33.0409   3
   3   0  -1 1099.18 33.0552   3
  -3   0   0 0.28334 1.97285   1
   3   0   0 0.34076 1.90572   1
  -3   0   0 0.53998 0.95498  12
  -3   0   0-1.02780 1.73372  18
  -3   0   0 0.62252 1.31040  17
   3   0   0 0.39558 1.23671  11
  -3   0   0-0.23948 1.61273  11
  -3   0   0-1.48530 1.89423   3
   3   0   0 3.06757 2.57336   3
  -3   0  -1 396.146 14.9504   3
  -3   0  -1 378.979 13.9848  11
  -3   0  -1 395.490 14.8840   1
  -3   0  -1 398.824 13.2529  12
   3   0   1 398.500 13.6728  11
  -3   0  -2 3.91450 2.90373   3
  -3   0  -2 1.26240 2.05078  11
  -3   0  -2-0.40872 3.12996   1
  -3   0  -2-0.71684 1.25004  12
  -3   0  -3 39.4406 5.56194   3
  -3   0  -3 33.5054 4.01828  11
  -3   0  -3 35.2172 5.88052   1
  -3   0  -3 46.3539 3.67079  12
  -3   0  -4-0.42318 2.56571  11
   3   0   4 1.46318 4.76384  15
  -3   0  -4 2.39921 1.79905  12
   3   0   5 112.060 9.02089  15
  -3   0  -5 119.756 8.05747  11
   3   0   5 126.027 12.5636   2
  -3   0  -5 109.586 6.54001  12
  -3   0  -6 1.07993 2.13548  12
   3   0   6-2.23814 5.95799  15
   3   0   6 6.27251 9.67215   2
  -3   0  -7 53.8739 4.92498  12
   3   0   7 62.2960 10.8712   7
   3   0   7 41.5662 10.3530   2
  -3   0  -8 1.67574 2.43001  12
   3   0   8-1.02762 9.04165   2
   3   0   8 14.5507 8.86326   7
   3   0   9 681.519 32.1135   2
   3   0   9 704.749 32.3905   7
   3   0  10 5.61976 9.05529   2
   3   0  10 2.27119 9.63228   7
  -3   1  13 71.4491 9.75011   7
  -3  -1  13 55.6808 8.83513   7
  -3   1  12 10.5507 5.97786   7
  -3  -1  12 9.19982 6.06975   7
  -3  -1  12 14.4497 3.95078  16
   3  -1 -12 21.3309 7.48234  15
   3   1 -12 12.3417 6.45004  15
  -3   1  12 21.5514 4.09831  16
   3  -1 -12 29.7371 10.1309   4
   3   1 -12 29.8712 9.39402   4
   3  -1 -11 69.6296 8.84584  15
   3   1 -11 61.6470 8.18174  15
  -3  -1  11 71.9417 6.63618  16
  -3   1  11 67.4607 6.35332  16
  -3   1  11 45.5807 7.66426   7
  -3  -1  11 56.2378 8.03608   7
   3  -1 -11 64.7547 10.5830   4
   3   1 -11 79.8410 11.2219   4
   3  -1 -10 57.1514 7.53024  15
   3   1 -10 51.0113 7.02884  15
  -3   1  10 62.1794 5.62061  16
  -3  -1  10 57.6529 5.56404  16
  -3   1  10 55.0096 7.41079   7
  -3  -1  10 54.7337 7.46891   7
   3  -1 -10 55.3897 9.27467   4
   3   1 -10 59.1505 9.16048   4
   3  -1  -9 712.310 26.4371  15
   3   1  -9 708.083 26.0027  15
  -3  -1   9 726.243 24.7349  15
   3  -1  -9 641.978 27.7633   4
   3   1  -9 660.054 28.0221   4
  -3  -1   9 687.575 24.4831  16
  -3   1   9 705.491 24.5275  16
  -3  -1   9 671.004 26.4916   7
  -3   1   9 697.636 26.4820   7
  -3   1   8 7.87362 2.41139  16
   3  -1  -8 9.39971 4.43376  15
   3   1  -8 7.75823 4.18404  15
  -3  -1   8 12.6143 3.93343  15
  -3   1   8 7.18818 3.68801  15
  -3  -1   8 6.26068 2.40039  16
   3  -1  -8 2.59831 5.20536   4
   3   1  -8 4.58010 5.27496   4
   3   1  -8 10.5673 2.83679  14
   3  -1  -8 10.1656 6.51449   7
   3   1  -8-3.50417 6.55598   7
   3  -1  -8 12.0550 6.30254   2
   3   1  -8 6.35407 5.50510   2
  -3   1   7 485.891 17.5162  16
  -3  -1   7 461.342 17.2766  16
   3  -1  -7 463.048 15.7940  14
   3  -1  -7 442.336 18.1526  15
   3   1  -7 451.697 17.7966  15
   3   1  -7 482.627 16.3267  14
   3  -1  -7 457.567 19.4908   4
   3   1  -7 467.295 19.6317   4
   3  -1  -7 458.790 18.6763   7
   3   1  -7 497.469 19.4045   7
   3  -1  -7 477.273 19.2691   2
   3   1  -7 497.270 19.5330   2
   3   1  -6 42.1447 4.05850   3
   3  -1  -6 35.7607 3.85905   3
   3  -1  -6 38.3716 5.24974   2
   3   1  -6 38.6968 5.04645   2
  -3   1   6 44.1995 3.82749  16
  -3  -1   6 43.7585 3.89092  16
   3   1  -6 41.3004 3.38801  14
   3  -1  -6 46.4064 4.48305  15
   3   1  -6 36.7021 3.98861  15
   3  -1  -6 37.6265 5.03703   4
   3   1  -6 35.6650 4.99940   4
   3  -1  -6 42.5664 3.20667  14
   3   1  -6 31.6378 2.04049  10
   3  -1  -6 38.0138 2.81292  10
   3  -1  -6 31.7756 4.88900   7
   3   1  -6 43.0122 5.25001   7
  -3  -1   5 1325.36 41.8131  16
  -3   1   5 1354.83 41.6713  16
   3   1  -5 1429.53 41.4606  16
   3   1  -5 1380.63 41.7917  15
   3  -1  -5 1447.59 42.4486  15
   3   1  -5 1448.79 41.8469  13
   3   1  -5 1475.16 40.9880  14
   3  -1  -5 1414.84 42.5220   7
   3   1  -5 1453.42 42.9224   7
   3  -1  -5 1447.28 42.8321   2
   3   1  -5 1456.11 42.1071   3
   3  -1  -5 1436.88 41.9302   3
   3   1  -5 1437.05 42.8677   2
   3  -1  -4 26.8386 2.86905   3
   3   1  -4 25.8632 2.84671   3
   3  -1  -4 26.1990 2.82045   1
   3   1  -4 27.9971 2.89583   1
  -3   1   4 24.0926 2.51654  16
  -3  -1   4 28.8836 2.76128  16
   3  -1  -4 25.8985 2.48452  17
   3   1  -4 21.2033 2.39394  16
   3   1  -4 23.3694 2.83556  15
   3  -1  -4 33.2293 3.24443  15
  -3   1   4 25.0935 1.55854   6
   3  -1  -4 24.9415 1.30348   5
   3   1  -4 26.6834 1.85459  12
   3   1  -4 26.1227 2.83252  13
   3  -1  -4 28.6987 2.70599  13
  -3   1   4 27.9647 1.73746  10
   3  -1  -4 26.6431 2.15946   9
   3   1  -3 1119.80 33.8792   1
   3  -1  -3 1149.49 33.7141   1
  -3  -1   3 1065.33 32.1091   6
  -3   1   3 1132.06 31.3675  12
   3   1  -3 1151.18 33.3249  13
  -3  -1   3 1137.71 33.4627  13
   3  -1  -3 1149.47 32.8981  13
   3   1  -3 1186.49 31.8032  12
   3   1  -3 1127.39 32.8706  16
  -3  -1   3 1180.74 33.2799  16
   3   1  -3 1150.49 33.4362  17
   3  -1  -3 1146.06 32.4883  17
  -3   1   3 1148.18 33.1059  16
   3   1  -3 1112.92 31.2931  11
   3   1  -3 1111.50 33.6240   3
   3  -1  -3 1136.31 33.5111   3
  -3   1   3 1159.50 33.6545   3
  -3  -1   3 1070.48 33.4324   3
   3   1  -2 129.895 6.43337   1
   3  -1  -2 122.595 6.20254   1
  -3   1   2 127.542 6.11319   1
  -3  -1   2 134.119 6.19849   1
  -3   1   2 122.584 4.91166  12
  -3  -1   2 137.465 6.18944  13
  -3   1   2 123.286 5.62080  13
   3   1  -2 133.487 5.17801  12
   3   1  -2 127.928 6.96425  18
   3   1  -2 142.969 5.57638  16
  -3  -1   2 129.006 5.58380  16
  -3  -1   2 143.070 6.42550  17
  -3   1   2 125.132 5.48347  16
  -3   1   2 131.451 5.67430  17
   3   1  -2 137.801 6.12662  17
   3  -1  -2 124.147 5.38128  17
   3  -1  -2 121.094 6.03120  11
   3   1  -2 126.713 4.51075  11
  -3  -1   2 139.374 6.34365   3
  -3   1   2 119.282 6.03652   3
   3   1  -2 120.088 6.14421   3
   3  -1  -2 127.027 6.19320   3
  -3  -1   1 229.114 9.08980   1
  -3   1   1 198.176 8.69105   1
   3   1  -1 220.112 9.34753   1
   3  -1  -1 223.088 9.33389   1
   3   1  -1 218.167 9.13780  18
  -3   1   1 224.422 7.60344  16
   3   1  -1 218.988 7.55703  16
   3   1  -1 216.721 8.51297  17
  -3   1   1 234.065 8.27274  17
  -3  -1   1 209.956 8.62256  17
   3  -1  -1 212.764 7.51480  18
  -3  -1   1 212.885 8.01367  12
  -3   1   1 219.082 8.16024  13
   3   1  -1 232.364 7.96552  12
  -3   1   1 219.951 7.80956  12
   3   1  -1 213.156 7.33326  11
  -3  -1   1 223.987 7.99264  11
  -3   1   1 211.488 9.01639  11
   3  -1  -1 227.791 8.83435  11
  -3   1   1 213.790 8.87976   3
   3   1  -1 211.868 9.12548   3
  -3  -1   1 209.742 8.89038   3
   3  -1  -1 217.062 9.15984   3
  -3  -1   0-1.13264 1.71687   1
  -3   1   0 1.41246 1.96716   1
   3   1   0 1.36704 2.07207   1
   3  -1   0 3.40898 2.15298   1
   3   1   0 1.47359 0.67362  16
  -3  -1   0 2.24177 2.34159  18
  -3  -1   0 4.00358 1.71491  17
  -3   1   0 1.24625 0.58988  16
  -3   1   0 1.43419 1.05201  12
  -3  -1   0 0.97484 1.00576  12
   3   1   0 0.34622 1.10430  12
   3  -1   0 1.23476 1.39861  11
  -3  -1   0 0.38963 1.30097  11
  -3   1   0 2.64390 1.96146  11
  -3   1   0-0.29618 1.67729   3
  -3  -1   0-0.59409 1.94825   3
   3   1   0 5.22718 2.59392   3
   3  -1   0 1.22710 2.45666   3
  -3  -1  -1 7.04552 2.98329   1
  -3   1  -1 4.35891 2.27974   1
  -3  -1  -1 2.17532 1.61687  17
   3   1   1 4.48954 0.72733  16
  -3   1  -1 5.06667 1.32399  12
   3   1   1 5.92101 1.47414  12
  -3  -1  -1 2.83017 1.22184  12
   3  -1   1 2.76411 1.42889  11
  -3  -1  -1 3.10663 1.64004  11
  -3   1  -1 3.48829 1.98550  11
  -3  -1  -1 2.13531 2.27164   3
  -3   1  -1 1.06655 2.13465   3
  -3   1  -2 32.5682 4.36484   3
  -3  -1  -2 40.4424 4.68112   3
  -3   1  -2 39.4498 4.04860  11
  -3   1  -2 40.4015 4.93697   1
  -3  -1  -2 44.5102 5.08301   1
  -3  -1  -2 41.4988 3.25813  12
   3  -1   2 38.9602 3.67303  11
  -3   1  -2 38.8052 3.23207  12
  -3  -1  -2 36.3781 3.55709  11
  -3  -1  -3 958.936 33.1952   3
  -3   1  -3 1006.52 33.2704   3
  -3   1  -3 983.991 31.5018  11
  -3   1  -3 973.165 32.9352   1
  -3  -1  -3 1013.84 33.2168   1
   3  -1   3 1033.89 31.2825  11
  -3  -1  -3 990.839 30.9066  11
  -3  -1  -3 958.933 29.7637  12
  -3   1  -3 932.941 29.7007  12
  -3  -1  -4 13.9222 3.27000  11
  -3   1  -4 19.3626 3.92391  11
   3   1   4 16.1664 5.23327  15
  -3   1  -4 14.2475 2.46344  12
  -3  -1  -4 17.5682 2.68461  12
   3   1   5 346.566 15.9827  15
   3  -1   5 317.179 15.5519  15
  -3   1  -5 343.198 15.2040  11
  -3  -1  -5 337.917 14.5866  11
  -3  -1  -5 337.517 13.2172  12
  -3   1  -5 339.474 13.2419  12
   3  -1   5 344.735 19.3429   2
   3   1   5 304.843 18.5971   2
  -3  -1  -6 15.2492 3.23442  12
  -3   1  -6 19.8771 3.23569  12
   3   1   6 31.3402 10.3666   2
   3  -1   6 24.2028 9.49238   2
   3  -1   6 26.6497 7.06464  15
  -3  -1  -7 56.5369 5.00145  12
  -3   1  -7 44.4249 4.64562  12
   3  -1   7 67.9140 11.9551   7
   3   1   7 61.4783 11.0961   7
   3   1   7 36.6744 10.3614   2
   3  -1   7 42.5431 9.80060   2
  -3  -1  -8 94.7877 6.68402  12
  -3   1  -8 88.1202 6.38762  12
   3   1   8 80.0280 12.0358   2
   3  -1   8 80.1062 12.2507   2
   3  -1   8 91.2928 12.3686   7
   3   1   8 112.053 13.2658   7
   3  -1   9 17.2569 10.4193   2
   3   1   9 10.7660 9.58420   2
   3  -1   9 28.5712 10.3905   7
   3   1   9 33.3936 11.6020   7
   3   1  10 11.2106 9.30038   2
   3  -1  10 6.73906 9.15778   2
   3  -1  10 1.14583 10.0824   7
   3   1  10 1.12284 9.72924   7
  -3   2  13 61.6204 8.97322   7
  -3  -2  13 66.3872 9.67789   7
  -3   2  12 2.39127 5.94011   7
  -3  -2  12-4.23858 6.44931   7
   3  -2 -12 11.0065 8.86760   4
   3  -2 -12 7.56755 6.26603  15
  -3   2  12 5.67393 3.09478  16
   3  -2 -11 618.941 28.7493   4
   3   2 -11 595.790 28.4130   4
   3  -2 -11 635.348 26.7393  15
   3   2 -11 608.400 25.2691  15
  -3   2  11 665.371 24.0040  16
  -3   2  11 637.795 26.3698   7
  -3  -2  11 639.456 26.7182   7
   3  -2 -10 3.46174 6.84594   4
   3   2 -10 3.49556 6.32645   4
  -3  -2  10 2.54767 2.59116  16
   3  -2 -10 14.5409 5.57953  15
   3   2 -10 11.4647 5.09140  15
  -3   2  10 3.98331 2.29104  16
  -3   2  10 4.00355 5.07715   7
  -3  -2  10 2.84609 4.66768   7
   3  -2  -9 50.6116 8.58173   4
   3   2  -9 48.8806 8.85652   4
   3  -2  -9 48.5805 7.09244  15
   3   2  -9 52.7558 6.58267  15
  -3  -2   9 51.6287 5.91700  15
  -3  -2   9 55.3346 5.47803  16
  -3   2   9 50.9756 5.15227  16
  -3  -2   9 44.2354 7.02656   7
  -3   2   8 84.3190 6.19276  16
  -3  -2   8 90.5290 6.40092  16
   3   2  -8 84.2853 5.96933  14
   3  -2  -8 91.3470 7.84369  15
   3   2  -8 85.5074 7.27638  15
  -3   2   8 88.6507 7.10701  15
   3  -2  -8 91.6879 9.23799   4
   3   2  -8 73.7616 8.61240   4
   3   2  -8 79.8131 9.00312   7
   3  -2  -8 100.927 9.28904   7
   3  -2  -8 100.504 9.06538   2
   3   2  -8 84.2961 8.87653   2
   3  -2  -7 16.8585 5.02853   2
   3   2  -7 21.6336 5.54695   2
  -3   2   7 28.1066 3.46305  16
   3   2  -7 30.5247 3.39919  16
   3  -2  -7 29.0876 4.69044  15
  -3  -2   7 32.0540 3.69661  16
   3   2  -7 25.0948 4.32719  15
   3  -2  -7 23.2659 5.62847   4
   3   2  -7 25.8682 5.44661   4
   3   2  -7 27.2592 3.36644  14
   3  -2  -7 23.2072 2.66012  14
   3  -2  -7 24.0601 2.84453  10
   3   2  -7 26.5069 5.76183   7
   3  -2  -7 39.1364 5.75940   7
   3   2  -6 7.07561 2.51803   3
   3  -2  -6 6.96590 2.29916   3
   3  -2  -6 7.17793 3.75733   2
   3   2  -6 9.87491 3.83928   2
   3   2  -6 12.9533 2.16858  16
  -3   2   6 3.73682 1.65681  16
   3  -2  -6 6.83547 2.82882  15
   3   2  -6 11.0197 2.86949  15
  -3  -2   6 5.53784 1.79520  16
   3   2  -6 9.10157 1.74151   6
   3   2  -6 14.4892 3.88201   4
   3  -2  -6 5.51244 3.33064   4
   3   2  -6 6.58505 2.02650  14
   3  -2  -6 7.38752 1.60416  14
   3  -2  -6 5.93008 1.71725  10
   3   2  -6 6.90785 1.48881  11
   3  -2  -6 12.2368 3.71558   7
   3   2  -6 6.93905 3.56175   7
   3   2  -5 720.779 22.8662  16
  -3  -2   5 712.791 23.3415  16
  -3   2   5 780.739 23.5413  16
   3   2  -5 721.244 23.0523  15
   3  -2  -5 701.912 23.7588  15
   3   2  -5 757.744 22.6309  14
   3   2  -5 734.230 21.3382   6
   3   2  -5 705.507 20.7474  11
   3   2  -5 725.794 23.3627  13
   3  -2  -5 697.593 23.6236   7
   3   2  -5 762.609 24.5184   7
   3   2  -5 703.936 20.1026   8
   3   2  -5 746.197 23.5220   3
   3  -2  -5 707.136 23.1036   3
   3  -2  -5 759.728 24.3280   2
   3   2  -5 728.721 24.1743   2
   3  -2  -4 490.523 16.1089   3
   3   2  -4 515.194 16.2428   3
   3   2  -4 509.040 16.4740   1
   3  -2  -4 489.104 16.3454   1
   3   2  -4 477.874 15.6077  16
   3  -2  -4 466.530 14.4335  17
  -3  -2   4 465.306 16.0291  16
  -3   2   4 475.630 15.9405  16
   3  -2  -4 470.881 16.4191  15
   3  -2  -4 430.057 13.2942   5
  -3   2   4 435.594 13.0680  12
   3   2  -4 499.398 16.1853  13
   3  -2  -4 479.839 15.4008  13
   3   2  -4 496.247 15.4151  14
   3   2  -4 461.608 13.1286  11
  -3   2   4 472.359 14.2524  10
   3   2  -4 498.978 16.7933   7
   3  -2  -4 463.457 14.9944   9
   3   2  -3 1534.20 45.8917  17
   3   2  -3 1583.09 44.8929  16
   3  -2  -3 1603.40 43.9165  17
  -3  -2   3 1531.77 44.7186   6
   3   2  -3 1608.35 45.6374  13
   3  -2  -3 1575.76 44.5569  13
  -3  -2   3 1616.94 45.7989  13
  -3   2   3 1545.62 43.1899  12
   3   2  -3 1576.35 44.0511  12
   3  -2  -3 1564.66 43.7542   8
   3  -2  -3 1623.13 45.5744   3
  -3  -2   3 1617.51 45.6153   3
  -3   2   3 1594.75 45.6001   3
   3   2  -3 1623.48 45.5922   3
   3   2  -3 1615.88 45.7768   1
   3  -2  -3 1677.19 45.9244   1
   3   2  -2 298.309 10.9160   3
  -3  -2   2 296.103 10.8466   3
   3  -2  -2 296.042 10.8968   3
  -3   2   2 285.251 10.7714   3
   3   2  -2 287.285 10.9709   1
   3  -2  -2 307.782 11.1790   1
  -3   2   2 270.274 10.4910   1
  -3  -2   2 292.435 10.6669   1
   3   2  -2 297.111 10.9575  17
  -3   2   2 288.894 9.76383  17
   3   2  -2 280.970 9.92096  16
   3   2  -2 275.797 12.3322  18
   3   2  -2 312.035 9.93897  12
  -3  -2   2 280.448 10.8493  13
  -3   2   2 275.137 9.79188  13
   3  -2  -2 298.601 11.4792  11
   3  -2  -2 286.025 9.81554   8
  -3   2   2 273.679 10.3793   9
  -3  -2   1 1374.24 40.5651   1
  -3   2   1 1373.33 40.6200   1
   3  -2  -1 1398.25 41.1742   1
   3   2  -1 1441.05 41.2780   1
  -3   2   1 1363.50 39.3870  17
   3   2  -1 1340.40 41.6638  18
   3   2  -1 1378.56 39.1328  16
  -3  -2   1 1461.56 41.9098  18
  -3  -2   1 1451.33 40.8453  17
   3   2  -1 1430.06 40.5846  17
   3   2  -1 1424.65 39.5258  12
  -3   2   1 1358.74 39.2740  13
   3  -2  -1 1402.02 41.3237  11
  -3   2   1 1433.56 41.5699  11
  -3  -2   1 1389.56 38.7246  11
  -3  -2   1 1425.81 40.7632   3
  -3   2   1 1410.49 40.7622   3
   3   2  -1 1411.61 40.9568   3
   3  -2  -1 1405.09 40.9103   3
   3   2   0 525.707 18.9205   1
   3  -2   0 529.483 18.8879   1
  -3   2   0 527.465 18.2457   1
  -3  -2   0 572.570 18.4994   1
   3   2   0 537.208 18.7084   3
   3  -2   0 525.609 18.5523   3
  -3  -2   0 533.560 17.5025  12
  -3  -2   0 552.556 16.8006  11
   3   2   0 562.638 17.1060  12
  -3  -2   0 553.390 18.9103  18
  -3  -2   0 552.689 17.9589  17
  -3   2   0 538.062 19.0726  11
   3  -2   0 528.551 18.4566  11
  -3  -2   0 531.411 18.4123   3
  -3   2   0 559.245 18.5209   3
  -3  -2  -1 138.735 7.43892   1
  -3   2  -1 134.794 7.36304   1
  -3  -2  -1 149.535 6.84706  17
  -3  -2  -1 141.658 6.57819  12
  -3  -2  -1 131.375 6.22366  11
   3   2   1 134.827 6.08882  12
   3  -2   1 142.163 7.22680  11
  -3   2  -1 121.638 7.39043  11
  -3   2  -1 136.625 7.48661   3
  -3  -2  -1 138.132 7.64773   3
  -3  -2  -2 99.6456 7.09449   3
  -3   2  -2 98.4532 6.96029   3
  -3  -2  -2 98.3382 5.64290  11
   3  -2   2 102.507 6.31193  11
  -3  -2  -2 101.214 5.52139  12
   3   2   2 106.725 5.35474  12
  -3   2  -2 95.7848 7.13327   1
  -3  -2  -2 103.286 7.26148   1
  -3   2  -2 108.930 6.99114  11
  -3  -2  -2 117.558 6.11119  17
  -3  -2  -3 29.3660 4.94443   3
  -3   2  -3 36.9748 5.14311   3
  -3  -2  -3 23.8446 2.87393  12
   3  -2   3 25.6737 3.29753  11
  -3  -2  -3 29.5842 3.53452  11
  -3   2  -3 30.1322 4.17495  11
  -3  -2  -3 30.7140 5.35192   1
  -3   2  -3 42.1427 5.71733   1
   3  -2   4 57.5427 5.27501  11
  -3  -2  -4 57.2802 4.44424  12
  -3  -2  -4 65.1866 5.36289  11
  -3   2  -4 54.5374 5.68771  11
   3   2   4 69.0143 7.42425  15
  -3  -2  -5 166.731 8.46823  12
  -3  -2  -5 173.274 9.53651  11
   3  -2   5 163.067 14.0365   2
   3   2   5 157.476 13.7955   2
  -3   2  -5 187.813 10.7004  11
   3   2   5 181.411 11.3042  15
   3  -2   5 167.785 11.1719  15
   3   2   6 470.352 23.9042   2
   3  -2   6 413.145 23.1532   2
   3  -2   6 445.394 19.2394  15
  -3  -2  -6 470.215 16.8863  12
  -3   2  -6 418.196 16.3929  12
  -3  -2  -7 301.242 13.0428  12
  -3   2  -7 318.647 13.1877  12
   3   2   7 287.843 18.9494   2
   3  -2   7 313.153 19.3727   2
   3  -2   7 288.956 19.3984   7
   3   2   7 320.902 19.8080   7
  -3  -2  -8 0.86922 2.49067  12
  -3   2  -8 1.68042 2.31997  12
   3  -2   8-11.2803 9.80855   2
   3   2   8-11.2444 9.94308   2
   3  -2   8 6.35093 9.63662   7
   3   2   8 1.01381 8.78370   7
   3  -2   9 410.997 24.0901   2
   3   2   9 411.862 24.1243   2
   3  -2   9 433.813 24.4701   7
   3   2   9 419.466 23.9543   7
   3  -2  10 3.46105 9.57260   7
   3   2  10 2.21320 9.78786   7
   3   2  10 18.9851 9.72855   2
   3  -2  10 8.96159 8.91779   2
  -3  -3  13 17.4634 6.71893   7
   3  -3 -13 18.6781 8.06311  15
  -3   3  12 60.6521 6.17485  16
   3  -3 -12 60.3113 9.02697  15
  -3  -3  12 59.9795 8.85007   7
   3  -3 -11 0.98280 7.47619   4
   3   3 -11 0.99386 7.50911   4
  -3   3  11 2.70543 2.74927  16
   3  -3 -11 3.15003 5.65768  15
  -3  -3  11 1.58028 5.54609   7
   3  -3 -10 63.3453 9.55535   4
   3   3 -10 64.9470 9.69215   4
  -3   3  10 65.5792 6.00158  16
   3  -3 -10 79.4618 8.45420  15
   3   3 -10 59.2190 7.10965  15
  -3  -3  10 62.6662 7.93917   7
   3  -3  -9 496.001 22.9499   4
   3   3  -9 496.527 22.9069   4
  -3   3   9 525.666 19.5754  16
  -3  -3   9 543.395 21.9348   7
   3  -3  -9 499.152 22.1688   7
   3  -3  -9 484.070 21.2198  15
   3   3  -9 456.388 19.5129  15
   3   3  -9 509.802 18.7122  14
   3   3  -8 200.852 9.71599  14
   3  -3  -8 207.693 11.9345  15
   3   3  -8 206.487 10.7382  15
  -3   3   8 213.347 10.9728  15
   3   3  -8 209.364 9.61274  16
  -3   3   8 198.147 10.0680  16
   3  -3  -8 189.284 12.4033   4
   3   3  -8 174.124 12.4540   4
   3  -3  -8 181.154 12.1043   7
   3   3  -8 179.379 12.6361   7
   3  -3  -8 203.101 12.5466   2
   3   3  -8 186.150 12.1385   2
   3   3  -7 884.595 27.8826   3
   3  -3  -7 882.539 27.7538   3
   3  -3  -7 824.454 28.8898   2
   3   3  -7 864.627 29.4004   2
   3   3  -7 842.384 26.5179  16
  -3   3   7 798.877 27.0923  16
   3  -3  -7 824.281 28.6079  15
   3   3  -7 822.250 27.2712  15
   3   3  -7 802.412 26.2427  14
   3   3  -7 808.651 29.5664   4
   3  -3  -7 770.947 29.1848   4
   3  -3  -7 804.379 25.7756  10
   3  -3  -7 801.344 28.2680   7
   3   3  -7 847.208 29.2804   7
   3   3  -6 9.70574 2.43531   3
   3  -3  -6 7.19774 2.43339   3
   3   3  -6 13.0102 4.17322   2
   3  -3  -6 7.62906 3.88487   2
   3   3  -6 12.2601 2.27879  16
   3  -3  -6 8.85025 3.03787  15
   3   3  -6 14.2814 3.22173  15
   3   3  -6 9.42143 2.11055   6
   3  -3  -6 3.69103 3.34884   4
   3   3  -6 9.44883 3.74497   4
   3   3  -6 9.78503 2.54320  13
   3   3  -6 14.6342 2.43841  14
   3  -3  -6 9.70486 2.23822  10
   3  -3  -6 8.93205 3.40873   7
   3   3  -6 16.9389 4.51844   7
  -3   3   6 7.46138 1.20601   8
   3   3  -5 341.938 13.5633   2
   3   3  -5 344.643 12.7496   3
   3  -3  -5 335.526 12.5978   3
   3  -3  -5 325.099 13.2567   2
   3   3  -5 325.425 12.1818  16
   3  -3  -5 309.539 10.5400  17
   3   3  -5 329.570 12.2276  15
   3  -3  -5 330.811 13.3438  15
   3   3  -5 333.226 12.0367  14
   3   3  -5 334.475 11.4283   6
   3   3  -5 335.612 12.7164  13
  -3   3   5 346.567 11.1071  10
   3   3  -5 314.211 10.4563  11
   3  -3  -5 336.371 12.2374   9
   3  -3  -5 326.616 12.9335   7
   3   3  -5 347.716 13.7818   7
  -3   3   5 322.028 10.1721   8
   3   3  -5 318.307 10.2799   8
   3   3  -4 12.6371 2.13260   3
   3  -3  -4 19.5839 2.56040   3
   3   3  -4 14.5698 2.30806   1
   3  -3  -4 20.3905 2.62074   1
   3  -3  -4 11.1448 1.44711  17
   3  -3  -4 12.9792 2.58105  15
   3   3  -4 16.5088 2.11273  16
   3  -3  -4 13.6061 1.49432   5
   3   3  -4 17.5469 2.11483   6
   3   3  -4 15.5353 1.48961   5
   3   3  -4 15.3849 2.12411  14
  -3   3   4 16.1634 1.12720  12
   3   3  -4 19.2164 2.59957  13
  -3   3   4 15.5367 2.03449  10
   3  -3  -4 12.2483 2.32070   9
   3   3  -4 12.7269 2.95077   7
   3   3  -3 187.143 7.68103  16
   3   3  -3 192.873 10.5198  18
   3   3  -3 191.378 8.70523  17
  -3   3   3 179.324 6.73371  17
  -3  -3   3 193.608 8.13934   6
   3   3  -3 198.907 8.36306   1
   3  -3  -3 190.108 8.17141   1
  -3  -3   3 187.425 8.24255  13
   3   3  -3 201.344 8.35120  13
   3  -3  -3 187.318 7.14596  13
   3   3  -3 190.843 7.59161  14
  -3  -3   3 182.741 6.13423   9
   3   3  -3 205.350 8.31143   3
   3  -3  -3 182.048 7.96196   3
  -3  -3   3 198.130 8.12632   3
  -3   3   3 182.647 8.00380   3
   3  -3  -2 9.38301 2.10869   3
  -3   3   2 20.3656 2.40673   3
  -3  -3   2 19.3683 2.28457   3
   3   3  -2 21.3798 2.68450   3
   3   3  -2 23.0475 4.04048  18
   3   3  -2 18.4697 2.43560  17
   3   3  -2 19.1619 2.02316  16
  -3   3   2 19.8303 1.86871  17
  -3  -3   2 22.3256 2.44364   6
  -3  -3   2 20.5062 2.46684  13
   3   3  -2 17.5337 1.98516  12
  -3   3   2 17.8151 2.57850   9
   3  -3  -2 14.3382 1.91135   8
  -3  -3   2 20.4096 1.56573  10
   3  -3  -2 22.0090 3.14542  11
   3   3  -2 13.9639 2.30479   1
   3  -3  -2 19.4004 2.53429   1
  -3  -3   2 17.8494 2.25897   1
  -3   3   2 20.7604 2.37770   1
  -3   3   1 39.4803 3.26088   3
   3  -3  -1 40.5243 3.62137   3
  -3  -3   1 35.2171 3.17433   3
   3   3  -1 37.5146 3.58302   3
  -3  -3   1 33.1853 3.53330  17
   3   3  -1 41.5167 4.49159  18
  -3  -3   1 38.2346 4.65238  18
   3   3  -1 33.9779 3.12722  17
  -3  -3   1 37.0005 3.28988   1
   3   3  -1 29.5524 3.27975   1
   3  -3  -1 35.1086 3.43037   1
  -3   3   1 48.8634 3.60131   1
   3   3  -1 41.3430 2.93235  12
  -3   3   1 39.9841 2.48956  13
  -3  -3   1 35.6380 2.14273  11
  -3   3   1 39.1376 4.15009  11
   3  -3  -1 31.2390 3.69664  11
   3  -3  -1 45.0511 3.24587   8
   3   3   0 35.4503 3.89135   1
   3  -3   0 43.4068 4.13786   1
  -3  -3   0 41.1926 3.70759   1
  -3   3   0 40.2715 3.67702   1
   3  -3   0 34.3696 3.89148   3
   3   3   0 34.9443 3.93869   3
   3   3   0 37.7290 2.90163  12
  -3  -3   0 37.5191 2.64893  11
  -3  -3   0 37.6503 4.60223  18
  -3  -3   0 37.6211 3.47827  17
   3   3   0 37.0908 3.28016  17
   3  -3   0 38.9377 4.00363  11
  -3   3   0 36.8207 4.30230  11
  -3  -3   0 33.5101 3.38336   3
  -3   3   0 35.7983 3.45015   3
  -3  -3  -1 789.164 25.8174   1
  -3   3  -1 787.420 25.6993   1
  -3  -3  -1 834.741 25.0860  17
   3   3   1 803.587 24.1890  12
  -3  -3  -1 772.465 24.7496  12
  -3   3  -1 836.099 27.2189  11
   3  -3   1 755.067 26.0741  11
  -3   3  -1 818.812 26.0775   3
  -3  -3  -1 764.390 25.9334   3
  -3  -3  -2 44.5351 3.98670  17
  -3   3  -2 46.1873 4.87626   3
  -3  -3  -2 52.5332 5.37292   3
  -3  -3  -2 51.4428 3.93984  12
   3   3   2 47.1221 3.55915  12
  -3   3  -2 50.3889 5.18988  11
   3  -3   2 39.0716 4.33169  11
  -3  -3  -2 51.6944 5.58570   1
  -3   3  -2 56.9794 5.37883   1
  -3  -3  -3 221.018 9.81979  17
   3   3   3 227.563 11.6733  15
  -3  -3  -3 229.402 12.1777   3
  -3   3  -3 228.371 12.2033   3
  -3   3  -3 218.857 11.4834  11
  -3   3  -3 220.012 11.9459   1
  -3  -3  -3 239.300 12.3338   1
   3  -3   3 238.800 11.1181  11
  -3  -3  -3 222.387 9.77684  12
  -3  -3  -3 247.105 10.2460  11
   3   3   3 231.586 9.33417  12
   3   3   4 103.501 8.27914  15
  -3   3  -4 108.148 8.09904  11
   3  -3   4 100.149 10.8261   2
   3  -3   4 92.4685 6.90338  11
  -3  -3  -4 96.9976 6.11512  12
  -3  -3  -4 105.520 6.64385  11
   3  -3   5 9.69986 5.72435  15
   3   3   5 12.6995 5.76374  15
  -3  -3  -5 16.5716 3.53667  11
  -3   3  -5 11.3666 4.45657  11
  -3  -3  -5 17.0289 3.03214  12
   3  -3   5 17.2023 8.79154   2
   3   3   5 23.5495 9.23252   2
  -3  -3  -6 0.78064 2.36647  12
   3   3   6 9.77248 9.12782   2
   3  -3   6-2.68305 8.87730   2
   3  -3   6 2.70021 5.77027  15
  -3  -3  -7 33.0184 4.26365  12
   3  -3   7 53.7922 10.8519   7
   3   3   7 41.7918 10.1960   7
   3   3   7 41.1085 9.97949   2
   3  -3   7 39.5522 10.1770   2
  -3  -3  -8 87.0910 6.65327  12
  -3   3  -8 78.9495 6.14835  12
   3  -3   8 62.9144 11.7727   7
   3   3   8 77.7715 12.3617   7
   3   3   8 71.0571 12.3854   2
   3  -3   8 74.6959 12.1494   2
  -3   3  -9 23.8776 3.92616  12
   3  -3   9 24.6663 10.1863   2
   3   3   9 13.8417 9.47999   2
   3  -3   9 23.4441 10.1803   7
   3   3   9 14.6142 10.0862   7
   3   3  10 36.5531 11.0823   2
   3  -3  10 45.7714 10.8591   2
   3  -3  10 36.0753 11.2689   7
   3   3  10 31.5236 10.5759   7
   3  -4 -13 49.3557 9.41687  15
  -3  -4  13 38.9448 8.55952   7
   3  -4 -12-3.52163 7.00666  15
  -3   4  12 2.32462 3.04027  16
  -3  -4  12-6.05679 6.02457   7
   3  -4 -11 58.1762 10.4345   4
   3   4 -11 49.7656 9.88617   4
   3  -4 -11 58.0966 8.36082  15
  -3   4  11 48.8512 5.53713  16
  -3  -4  11 37.5143 7.51538   7
   3  -4 -10 11.3271 6.89496   4
   3   4 -10 9.68671 7.01182   4
   3  -4 -10 21.8605 6.04867  15
  -3   4  10 7.21921 2.74495  16
  -3  -4  10 1.45718 4.91168   7
   3  -4  -9 37.2585 8.19087   4
   3   4  -9 27.6433 7.57239   4
   3  -4  -9 26.1585 7.67333   7
   3  -4  -9 26.1705 6.28166  15
  -3   4   9 32.6723 4.36405  16
  -3  -4   9 28.9568 6.04405   7
  -3   4   8 517.221 19.2793  16
   3   4  -8 497.767 18.2242  16
   3  -4  -8 498.283 20.8755  15
   3   4  -8 504.488 19.1890  15
   3   4  -8 478.235 18.3143  14
  -3   4   8 521.169 19.8635  15
   3  -4  -8 514.139 22.0832   4
   3   4  -8 506.666 22.1451   4
   3  -4  -8 503.942 21.1076   7
   3   4  -8 518.406 22.2072   7
   3   4  -8 524.929 21.7230   2
   3  -4  -8 550.329 21.7279   2
   3   4  -7 7.34221 2.63890   3
   3  -4  -7 13.0476 3.08684   3
   3  -4  -7 16.0366 5.32477   2
   3   4  -7 2.04559 5.10349   2
   3   4  -7 12.0776 2.54754  16
   3  -4  -7 17.3217 4.51329  15
   3   4  -7 11.0495 3.50622  15
   3  -4  -7 10.0656 5.07432   4
   3   4  -7 2.27809 4.75891   4
   3   4  -7 11.7678 3.21379  14
   3   4  -7 10.0199 2.60452  13
   3  -4  -7 9.62559 2.65562  10
   3  -4  -7 2.76605 4.36114   7
   3   4  -7 21.9144 5.53885   7
   3  -4  -6 1.28049 4.01224   2
   3   4  -6-3.50220 4.34539   2
   3   4  -6 0.89933 1.59071  16
   3  -4  -6 3.09478 2.97747  15
   3   4  -6 2.39197 2.57712  15
   3   4  -6-2.38870 3.70709   4
   3   4  -6-0.55153 2.06931   6
   3  -4  -6-1.86004 3.44039   4
   3   4  -6 3.30328 2.17373  14
   3   4  -6 3.69308 2.01370  13
   3  -4  -6 0.76787 3.29172   7
   3   4  -6 1.82978 3.87997   7
   3   4  -6 0.33092 1.98485   3
   3  -4  -6 0.32349 2.04296   3
   3  -4  -5 84.3649 5.99954   2
   3   4  -5 81.9483 5.06553   3
   3  -4  -5 85.1503 5.16929   3
   3   4  -5 74.7730 5.78931   2
   3   4  -5 85.4123 5.02219  16
   3  -4  -5 73.1792 3.12028  17
   3   4  -5 70.0997 4.58195  15
   3  -4  -5 82.9261 5.93156  15
   3   4  -5 81.9053 4.95848  14
   3   4  -5 77.0379 4.71613   6
   3   4  -5 80.1479 5.23065  13
   3   4  -5 79.4417 4.02764  11
  -3   4   5 81.4410 4.43467  10
   3  -4  -5 83.0187 5.40770   9
   3  -4  -5 82.2501 5.67618   7
   3   4  -5 82.7119 6.22101   7
  -3   4   5 77.1903 3.87217   8
   3   4  -4 1840.85 49.8449   3
   3  -4  -4 1725.33 49.4858   3
   3   4  -4 1759.89 49.9131   1
   3  -4  -4 1752.00 49.8214   1
   3   4  -4 1723.68 49.3560  16
   3  -4  -4 1734.72 50.7914  15
   3   4  -4 1679.04 49.0340  14
   3   4  -4 1697.81 48.6569  15
   3   4  -4 1826.59 49.1492   6
   3   4  -4 1645.75 47.7785   5
   3  -4  -4 1605.90 47.5244   5
   3   4  -4 1795.73 50.0802  13
   3   4  -4 1747.65 46.7331  10
  -3   4   4 1754.71 48.9591  10
   3   4  -4 1830.92 50.7593   7
  -3   4   4 1711.94 48.0758   8
   3  -4  -4 1683.61 50.0205   9
   3   4  -3 877.168 28.3979  17
  -3   4   3 843.493 25.1646  17
   3   4  -3 893.970 27.0989  16
   3   4  -3 900.323 31.5237  18
   3  -4  -3 909.688 26.2693   5
   3   4  -3 922.548 27.5785   1
   3  -4  -3 872.131 27.3928   1
   3   4  -3 920.006 27.7588  13
   3  -4  -3 868.447 25.8408  13
   3   4  -3 891.270 26.8482  14
  -3  -4   3 867.275 27.6709  13
  -3  -4   3 870.811 25.5796   9
  -3   4   3 941.631 26.5503   8
   3  -4  -3 948.086 28.4501   9
   3  -4  -3 912.375 27.2699   3
  -3  -4   3 961.172 27.4365   3
  -3   4   3 909.955 27.3637   3
   3   4  -3 935.475 27.3767   3
   3  -4  -2 187.245 8.10933   3
   3   4  -2 198.790 8.25483   3
  -3  -4   2 187.800 8.04984   3
  -3   4   2 199.315 8.18916   3
   3   4  -2 186.336 8.66391  17
   3   4  -2 197.792 10.9770  18
  -3   4   2 184.116 6.68333  17
  -3  -4   2 202.360 8.59046   6
   3   4  -2 189.276 8.37861   1
   3  -4  -2 206.228 8.58196   1
  -3  -4   2 208.574 8.07091   1
  -3   4   2 179.072 7.82728   1
   3   4  -2 192.538 7.57780  14
  -3  -4   2 183.990 8.28497  13
   3  -4  -2 191.091 9.73031  11
  -3  -4   2 192.015 7.06171  10
  -3   4   2 185.120 8.63821   9
   3  -4  -2 185.356 7.75996   8
  -3  -4   1 12.5330 2.10756   3
   3   4  -1 9.76626 2.37725   3
   3  -4  -1 9.91152 2.26258   3
  -3   4   1 6.70738 1.85666   3
  -3  -4   1 6.14802 2.24050  17
  -3  -4   1 7.90249 3.66301  18
   3   4  -1 7.90240 2.10313  17
  -3  -4   1 11.4380 1.97623   6
  -3   4   1 11.7952 2.17380   1
   3   4  -1 10.7579 2.31864   1
   3  -4  -1 12.3870 2.51529   1
  -3  -4   1 13.5842 2.09217   1
  -3   4   1 8.77409 1.17519  13
   3   4  -1 7.60558 1.66031  12
  -3   4   1 10.1326 2.97613  11
  -3  -4   1 12.4138 1.67693  10
   3  -4  -1 11.6831 2.87541  11
  -3   4   1 12.6123 2.65805   9
   3  -4  -1 9.87948 1.92447   8
  -3   4   0 165.619 7.86658   3
  -3  -4   0 181.451 8.18487   3
  -3  -4   0 180.343 8.32871  17
   3   4   0 171.282 7.97327  17
  -3  -4   0 160.132 9.88987  18
   3   4   0 182.382 8.71658   3
   3  -4   0 170.952 8.48765   3
   3   4   0 187.826 7.52234  12
   3  -4   0 171.105 7.82789   8
   3  -4   0 178.335 9.47333  11
  -3   4   0 193.013 9.90908  11
   3  -4   0 170.008 8.59053   1
   3   4   0 177.083 8.82651   1
  -3  -4   0 171.511 8.02988   1
  -3   4   0 170.980 7.99759   1
  -3  -4  -1 154.282 7.91300   3
  -3   4  -1 143.225 7.60756   3
  -3  -4  -1 135.724 7.42977   1
  -3   4  -1 138.097 7.46613   1
  -3  -4  -1 150.220 7.32138  17
  -3   4  -1 127.364 5.35432  18
   3   4   1 132.381 6.31796  12
  -3   4  -1 137.130 8.63499  11
   3  -4   1 124.626 7.90533  11
   3  -4   1 141.753 7.15555   8
  -3   4  -2 18.5254 4.14787   1
  -3  -4  -2 21.5788 3.99085   1
  -3  -4  -2 20.6802 3.15304  17
   3   4   2 24.3509 2.73038  12
   3  -4   2 18.0965 3.46441  11
  -3   4  -2 17.6753 4.17960  11
  -3  -4  -2 27.7306 4.03219   3
  -3   4  -2 20.2183 3.78562   3
  -3  -4  -3 111.861 6.53697  17
   3   4   3 123.284 8.48084  15
  -3   4  -3 120.869 8.46278   3
  -3  -4  -3 113.219 8.55829   3
   3  -4   3 120.286 7.81408  11
   3   4   3 120.421 6.13020  12
  -3  -4  -3 103.485 6.46357  12
  -3   4  -3 124.198 8.64324  11
  -3  -4  -3 133.925 9.05166   1
  -3   4  -3 110.417 8.28848   1
   3   4   4 12.6595 5.36000  15
   3  -4   4 24.5327 8.24796   2
   3   4   4 27.0228 8.45598   2
   3   4   4 16.0556 2.71512  12
  -3  -4  -4 15.8012 3.05912  12
   3  -4   4 17.0986 3.61052  11
  -3   4  -4 10.7362 4.17236  11
  -3  -4  -4 17.5836 3.31663  17
  -3  -4  -5 321.396 13.2829  12
   3  -4   5 319.721 14.6839  11
   3  -4   5 304.194 18.3904   2
   3   4   5 298.314 18.2296   2
  -3   4  -5 307.063 15.3585  11
   3   4   5 317.011 15.3650  15
   3  -4   5 305.304 14.7765  15
   3  -4   6 253.240 13.8659  15
  -3  -4  -6 278.236 12.1590  12
   3   4   6 273.607 18.0851   2
   3  -4   6 251.313 17.5042   2
   3  -4   6 227.613 17.5872   7
  -3  -4  -7 48.0527 5.11517  12
   3   4   7 46.3976 10.0696   2
   3  -4   7 45.2378 10.4081   2
   3  -4   7 76.6881 11.9356   7
   3   4   7 58.6267 10.4969   7
   3   4   8 155.386 14.9037   7
   3  -4   8 145.094 15.0538   7
   3   4   8 149.661 14.7916   2
   3  -4   8 141.776 14.6757   2
  -3   4  -9 217.829 11.0024  12
   3  -4   9 184.752 16.4583   2
   3  -4   9 193.455 17.6862   7
   3   4   9 214.823 17.1145   7
   3   4  10 31.7473 10.1311   2
   3  -4  10 26.6588 10.2319   2
   3  -4  10 32.7300 11.2977   7
   3   4  10 17.0443 9.94939   7
   3  -5 -12 54.7850 9.80680  15
  -3   5  12 53.6920 5.99593  16
  -3  -5  12 62.7970 8.88416   7
   3  -5 -11 3.30392 5.75186  15
  -3   5  11 5.04683 2.97665  16
  -3  -5  11-4.02785 5.78785   7
   3  -5 -11 6.93004 8.30562   4
   3   5 -11 8.94323 7.81055   4
   3  -5 -10 42.6665 6.89062  15
   3  -5 -10 57.6996 9.03103   4
   3   5 -10 54.5462 9.31743   4
  -3   5  10 41.3002 4.94936  16
  -3  -5  10 47.7916 7.25440   7
   3  -5  -9 90.3767 8.87869  15
   3  -5  -9 74.8164 9.22260   4
   3   5  -9 81.3892 9.70976   4
  -3  -5   9 93.9317 6.72251  14
  -3   5   9 78.5902 6.48838  16
  -3  -5   9 77.2707 8.20370   7
   3   5  -8 299.263 12.5987  16
   3  -5  -8 290.984 15.1555  15
   3   5  -8 293.835 13.0965  14
   3  -5  -8 295.435 15.9565   4
   3   5  -8 310.413 16.2067   4
  -3  -5   8 304.056 13.1667  14
   3   5  -8 293.403 16.3605   7
   3  -5  -8 284.366 15.2213   7
   3   5  -8 323.060 13.7997   3
   3   5  -8 316.011 15.9364   2
   3  -5  -8 309.029 15.7731   2
   3   5  -7 142.543 7.93066   3
   3  -5  -7 143.194 7.79779   3
   3  -5  -7 133.737 9.54583   2
   3   5  -7 135.513 9.90785   2
   3   5  -7 127.973 7.24256  16
   3  -5  -7 139.660 9.44413  15
   3   5  -7 122.911 7.37372  15
   3   5  -7 142.109 7.85219  14
   3  -5  -7 147.390 10.0433   4
   3   5  -7 129.127 9.78131   4
   3   5  -7 126.515 7.49260  13
   3  -5  -7 116.804 7.31659  10
   3  -5  -7 132.649 9.09983   7
   3   5  -7 156.739 10.3172   7
   3   5  -6 1467.63 43.9305   2
   3   5  -6 1448.02 42.3315   3
   3  -5  -6 1394.42 42.0752   3
   3  -5  -6 1437.48 43.7219   2
   3   5  -6 1410.10 41.8825  16
   3  -5  -6 1366.26 43.8325  15
   3   5  -6 1396.85 41.3940  15
   3   5  -6 1390.33 41.9249  14
   3   5  -6 1425.15 42.2059   6
   3  -5  -6 1322.01 43.6566   4
   3   5  -6 1453.95 44.4688   4
   3   5  -6 1351.48 42.2427  13
  -3   5   6 1428.92 40.8559  10
   3  -5  -6 1416.75 42.8479   7
   3   5  -6 1447.76 44.2483   7
   3   5  -5 206.767 9.69407   2
   3   5  -5 197.734 8.56656   3
   3  -5  -5 170.906 8.09472   3
   3  -5  -5 183.372 9.29180   2
   3   5  -5 161.353 8.05359  16
   3   5  -5 199.892 7.99507  15
   3  -5  -5 171.305 9.28363  15
   3   5  -5 191.378 8.53173  14
  -3   5   5 150.940 6.04139   6
   3   5  -5 220.749 9.00692   6
   3   5  -5 174.931 7.10913   5
   3   5  -5 172.702 8.50674  13
  -3   5   5 188.282 7.93115  10
   3  -5  -5 181.526 9.02261   9
   3  -5  -5 171.842 8.51442   7
   3   5  -5 215.676 10.2311   7
  -3   5   5 172.771 7.21876   8
   3   5  -4 14.4751 2.45454   3
   3  -5  -4 17.6547 2.58292   3
   3   5  -4 12.4884 2.93011   2
   3   5  -4 13.1464 2.20257   1
   3  -5  -4 10.4169 2.14189   1
   3   5  -4 17.6056 5.07141  18
   3   5  -4 15.2435 2.13317  15
   3  -5  -4 9.39846 2.82712  15
   3   5  -4 10.5547 2.02650  16
   3   5  -4 17.1139 2.07395   5
   3   5  -4 15.1696 2.54754   6
   3   5  -4 13.9510 2.28909  14
   3   5  -4 17.3556 2.75537  13
   3   5  -4 14.1039 1.63541  10
  -3   5   4 9.85997 2.16301  10
   3  -5  -4 17.5358 2.98188   9
   3   5  -4 13.2294 3.20817   7
  -3   5   4 9.77840 1.84617   8
   3  -5  -3 175.891 7.77873   3
  -3  -5   3 192.942 7.98749   3
  -3   5   3 184.107 7.91608   3
   3   5  -3 200.395 8.11205   3
   3   5  -3 198.759 8.29484   1
   3  -5  -3 186.159 8.10348   1
   3   5  -3 174.554 9.01617  17
  -3   5   3 157.626 5.91938  17
   3   5  -3 172.030 11.4288  18
   3   5  -3 196.272 7.91655  14
   3   5  -3 201.197 8.32496   6
   3  -5  -3 173.628 7.32942   5
   3  -5  -3 173.848 6.59565  13
  -3  -5   3 196.118 8.64263  13
   3   5  -3 185.674 8.43779  13
   3   5  -3 194.855 6.58862  10
  -3  -5   3 187.458 6.09383  11
  -3  -5   3 185.324 7.31982   9
  -3   5   3 181.714 7.63940   8
   3  -5  -3 175.923 9.00504   9
  -3  -5   2 1.19439 1.19517   3
   3  -5  -2 2.21820 1.75728   3
  -3   5   2 1.65902 1.20416   3
   3   5  -2 2.50201 2.02790   3
  -3  -5   2-0.53748 3.68154  18
   3   5  -2 3.08732 3.78291  18
   3   5  -2 1.38191 1.80751  17
  -3  -5   2 3.39770 2.12464   6
  -3   5   2 0.22138 1.41183   1
   3   5  -2 0.82994 1.89507   1
   3  -5  -2 1.36245 1.58023   1
  -3  -5   2 0.22120 1.39711   1
   3   5  -2 2.09730 1.25808  14
  -3  -5   2 0.29897 1.34826  13
  -3  -5   2-0.39634 1.33477  10
   3  -5  -2-1.89832 2.48284  11
  -3   5   2 1.03005 2.16838   9
  -3   5   2 0.99674 1.34055   8
  -3  -5   1 91.6437 4.99950   3
  -3   5   1 81.5559 4.85494   3
   3  -5  -1 87.5281 5.31239   3
   3   5  -1 84.2980 5.41371   3
   3   5  -1 80.8322 5.36546  17
   3  -5  -1 79.5443 4.59708  18
  -3  -5   1 87.6238 7.59918  18
  -3  -5   1 91.1855 5.62718   6
  -3  -5   1 80.1858 4.77090   1
  -3   5   1 88.0594 4.90548   1
   3   5  -1 79.3995 5.26060   1
   3  -5  -1 76.0132 5.13514   1
  -3  -5   1 76.1662 5.18076  13
  -3   5   1 80.4380 3.27299  13
   3   5  -1 83.1635 4.31737  14
   3  -5  -1 87.3366 6.82622  11
  -3  -5   1 68.2306 4.22680  10
   3  -5  -1 80.9634 4.95576   8
  -3   5   1 81.2574 5.93075   9
  -3  -5   0 52.3461 4.08571   3
  -3   5   0 55.3032 4.13280   3
  -3  -5   0 46.9761 6.16281  18
  -3  -5   0 43.2174 4.33425  17
   3   5   0 58.7788 4.43779  17
   3   5   0 56.0754 4.90846   3
  -3  -5   0 61.6116 4.67117   6
   3  -5   0 60.7536 4.97298   3
   3   5   0 56.4945 3.94655  12
   3  -5   0 58.0796 4.36494   8
  -3   5   0 53.8737 5.66830  11
  -3  -5   0 54.5267 3.77217  10
   3  -5   0 63.8058 5.71824  11
  -3   5   0 52.8160 4.16379   1
  -3  -5   0 50.9913 4.15698   1
   3   5   0 57.6441 4.97771   1
   3  -5   0 54.8022 4.81065   1
  -3   5  -1 424.400 15.4981   3
  -3  -5  -1 415.321 15.4680   3
  -3  -5  -1 415.014 15.2522   1
  -3   5  -1 429.619 15.3378   1
   3   5   1 382.762 14.6828  17
  -3  -5  -1 393.693 15.0233  17
   3   5   1 419.524 14.3916  12
  -3   5  -1 402.460 17.3853  11
  -3  -5  -1 421.113 14.6535  10
   3  -5   1 376.390 16.6688  11
   3  -5   1 433.072 15.3605   8
  -3  -5  -2 87.2718 6.55059   1
  -3   5  -2 86.8288 6.44344   1
  -3  -5  -2 82.9294 5.56969  17
  -3   5  -2 79.9235 5.41794  18
   3   5   2 88.5428 6.71038  15
  -3   5  -2 89.1890 6.47553   3
  -3  -5  -2 85.0828 6.54916   3
   3   5   2 70.3389 4.73350  12
  -3   5  -2 78.0343 7.20941  11
   3  -5   2 74.7844 6.42135  11
   3  -5   2 82.7160 5.76003   8
  -3  -5  -3 12.7857 4.59210   3
  -3   5  -3 14.4411 4.31692   3
  -3  -5  -3 5.28716 2.43166  17
   3   5   3 3.08494 4.64617  15
  -3  -5  -3 12.3283 4.65248   1
  -3   5  -3 13.8797 4.68481   1
   3   5   3 4.83610 2.07635  12
   3  -5   3 2.08733 2.65483  11
  -3   5  -3 8.14832 4.11994  11
   3  -5   3 1.51905 2.42601   8
  -3  -5  -4 709.337 23.9898  17
   3   5   4 719.338 25.9543  15
   3  -5   4 733.200 29.6717   2
   3   5   4 705.948 29.0638   2
   3   5   4 712.335 23.1994  12
   3  -5   4 739.993 26.5608  11
  -3   5  -4 732.130 27.4799  11
   3  -5   4 783.482 25.2848   8
  -3  -5  -5 237.035 10.7462  17
   3   5   5 234.702 13.0022  15
   3  -5   5 226.247 12.5007  15
   3   5   5 223.526 9.78680  12
   3  -5   5 235.219 12.4783  11
   3  -5   5 223.271 11.2172   8
  -3   5  -5 231.306 13.3557  11
   3   5   5 236.663 16.0326   2
   3  -5   5 192.684 15.2549   2
  -3  -5  -6 144.347 8.33856  17
   3  -5   6 161.798 10.2153  11
   3  -5   6 135.714 13.8392   2
   3   5   6 174.483 14.4366   2
   3  -5   6 139.077 13.9014   7
   3  -5   7 1.91781 8.81202   2
   3   5   7-2.79883 8.45354   2
   3   5   7 5.44374 8.33772   7
   3  -5   7 2.05703 9.00353   7
   3   5   8 163.040 15.2825   2
   3  -5   8 155.180 15.1846   2
   3   5   8 154.523 14.8203   7
   3  -5   8 193.526 16.6088   7
   3   5   9 15.5452 9.21393   2
   3  -5   9 7.44030 7.97999   2
   3  -5   9 9.05744 10.1149   7
   3   5  10 15.0867 10.2333   2
   3  -5  10 23.1931 10.5326   2
   3  -5  10 24.6390 11.7047   7
   3  -6 -12 24.7715 8.05458  15
  -3   6  12 22.8796 4.23662  16
  -3  -6  12 22.7971 6.65268   7
   3  -6 -11 21.1434 7.22187  15
   3  -6 -11 41.7685 9.86751   4
   3   6 -11 31.6461 9.12642   4
  -3   6  11 43.1979 5.26099  16
  -3  -6  11 17.0149 6.77293   7
   3  -6 -10 20.8593 6.15814  15
   3  -6 -10 21.9671 8.08216   4
   3   6 -10 19.2574 7.51250   4
  -3  -6  10 9.15866 3.23168  14
  -3   6  10 18.5042 3.64983  16
  -3  -6  10-0.74213 5.46209   7
   3  -6  -9 14.6349 5.48098  15
   3  -6  -9 7.65783 6.20947   4
   3   6  -9 5.35998 6.49755   4
  -3  -6   9 6.24765 2.66143  14
  -3  -6   8 612.762 22.5167  14
   3  -6  -8 608.532 25.2587   4
   3   6  -8 600.938 25.2966   4
   3  -6  -8 620.111 24.8146  15
   3  -6  -8 630.905 24.8236   2
   3   6  -8 627.475 24.7624   2
   3   6  -8 642.953 22.4909   3
   3  -6  -8 666.370 22.5242   3
   3  -6  -7 18.1570 5.23802   7
   3   6  -7 21.6717 6.21926   7
   3  -6  -7 8.85717 4.32867  15
   3   6  -7 7.74736 2.38146  16
   3  -6  -7 4.51279 4.94279   4
   3   6  -7 0.56905 5.32974   4
  -3  -6   7 4.59423 2.31662  14
   3   6  -7 9.42381 3.00780  13
   3   6  -7 10.6135 3.39217  14
   3   6  -7 7.31081 2.75134   3
   3  -6  -7 10.0562 2.84886   3
   3  -6  -7 11.7069 5.49834   2
   3   6  -7 5.11021 5.44570   2
   3   6  -6 220.283 9.70700   3
   3  -6  -6 204.465 9.47520   3
   3  -6  -6 199.426 10.8877   2
   3   6  -6 235.951 11.5684   2
   3   6  -6 197.775 9.41843  16
   3  -6  -6 210.556 11.3215  15
   3   6  -6 200.599 9.78487  14
   3   6  -6 203.742 10.2672   6
   3  -6  -6 216.200 11.3514   4
   3   6  -6 204.408 11.2439   4
  -3  -6   6 220.402 10.2821  14
   3   6  -6 216.560 10.0224  13
  -3   6   6 218.073 9.18370  10
   3  -6  -6 231.551 10.7804   7
   3   6  -6 219.394 11.6723   7
   3   6  -5 12.9228 2.50242   3
   3  -6  -5 14.7707 2.63626   3
   3  -6  -5 16.0214 3.78672   2
   3   6  -5 20.5949 3.90720   2
   3   6  -5 16.6715 5.72151  18
   3   6  -5 14.4179 2.62271  16
   3  -6  -5 17.0997 3.89106  15
   3   6  -5 13.3905 2.44730  15
   3   6  -5 15.4223 3.16713   6
   3   6  -5 12.5515 2.12044   5
   3   6  -5 13.2768 3.61194   4
   3   6  -5 10.2173 2.73528  14
   3   6  -5 12.1255 2.68937  13
  -3   6   5 14.8762 2.65472  10
   3   6  -5 15.4652 4.02438   7
   3  -6  -5 9.90730 2.99771   9
   3  -6  -5 18.1583 3.58821   7
  -3   6   5 14.6426 2.41856   8
   3   6  -4 1681.35 46.8911   3
   3  -6  -4 1654.39 46.7901   3
   3  -6  -4 1627.65 47.4449   2
   3   6  -4 1688.52 47.6750   2
   3   6  -4 1633.99 47.0870   1
   3  -6  -4 1608.18 46.9681   1
   3   6  -4 1554.81 53.1049  18
   3  -6  -4 1629.01 48.4010  15
   3   6  -4 1599.90 46.9423  14
   3   6  -4 1566.23 45.4371  15
   3   6  -4 1685.17 47.7382   6
   3   6  -4 1531.84 46.0340   5
   3   6  -4 1647.12 47.6470  13
  -3   6   4 1638.89 47.3006  10
   3   6  -4 1605.28 45.3183  10
  -3  -6   4 1619.88 44.6273  11
   3  -6  -4 1616.71 46.6409   7
   3   6  -4 1686.50 48.1788   7
  -3   6   4 1609.87 46.5340   8
   3  -6  -4 1573.78 48.7468   9
   3  -6  -3 73.7134 4.59871   3
  -3  -6   3 74.2311 4.48817   3
  -3   6   3 79.4214 4.67783   3
   3   6  -3 75.8738 4.67672   3
   3   6  -3 73.3695 4.76664   1
   3  -6  -3 82.5391 4.91611   1
   3   6  -3 74.0509 8.01327  18
   3   6  -3 80.4276 5.85273  17
  -3   6   3 66.7184 2.90467  17
   3   6  -3 78.2149 4.74408  14
   3  -6  -3 86.7899 5.82324  15
   3   6  -3 71.8179 5.00923   6
   3  -6  -3 77.2353 4.57657   5
   3  -6  -3 76.2913 3.51709  13
  -3  -6   3 62.5971 4.77582  13
  -3  -6   3 73.4949 3.98154  11
   3   6  -3 69.7598 3.81107  10
  -3   6   3 78.8523 5.35396  10
  -3  -6   3 73.6017 4.56616   9
  -3   6   3 82.7668 4.93265   8
   3  -6  -3 84.8814 6.23614   9
   3   6  -3 74.1110 5.23465   7
  -3   6   2 9.53799 1.88428   3
   3  -6  -2 11.7446 2.34386   3
  -3  -6   2 17.5589 2.26657   3
   3   6  -2 16.2599 2.55592   3
   3   6  -2 9.51874 2.56597  17
  -3  -6   2 17.4734 5.17756  18
   3   6  -2 9.62036 4.60097  18
  -3  -6   2 14.2980 2.90055   6
   3  -6  -2 12.4333 2.29441   5
   3   6  -2 13.7439 2.51716   1
   3  -6  -2 14.6132 2.64922   1
   3   6  -2 13.6953 2.05852  14
  -3  -6   2 12.4345 2.33420  13
   3  -6  -2 14.5147 3.47843  11
  -3   6   2 15.1514 3.14934   9
  -3   6   2 14.2551 2.35059   8
  -3  -6   1 27.4369 2.82382   3
   3   6  -1 30.1579 3.81390   3
   3  -6  -1 28.7886 3.47945   3
  -3   6   1 28.3612 2.90842   3
  -3  -6   1 22.9058 5.46884  18
   3  -6  -1 33.6689 3.76243  18
   3   6  -1 29.1841 3.51310  17
  -3  -6   1 24.4402 3.45566   6
  -3  -6   1 36.2426 3.12041   1
  -3   6   1 30.0354 2.98314   1
   3   6  -1 30.7235 3.64223   1
   3  -6  -1 32.5308 3.53439   1
  -3  -6   1 29.5110 3.27157  13
   3   6  -1 33.6703 2.80200  14
   3  -6  -1 31.1249 4.62794  11
  -3  -6   1 36.5503 3.27385  10
  -3   6   1 28.0655 4.08623   9
   3  -6  -1 28.3871 3.31021   8
  -3  -6   0 270.001 10.8636   3
  -3   6   0 289.530 11.0118   3
  -3  -6   0 285.316 12.0247  17
   3   6   0 288.114 11.6585  17
  -3  -6   0 285.471 14.4844  18
  -3  -6   0 275.735 11.9852   6
   3   6   0 280.593 11.6632   3
   3  -6   0 291.305 11.7110   3
  -3  -6   0 294.001 11.0889   1
  -3   6   0 276.591 10.8194   1
   3   6   0 285.045 12.0428   1
   3  -6   0 296.039 12.0691   1
  -3   6   0 244.088 8.35089  13
   3   6   0 292.287 10.0464  14
   3   6   0 276.467 10.8392  12
  -3  -6   0 301.593 11.2671  10
  -3   6   0 314.419 14.0604  11
   3  -6   0 269.822 13.5673  11
   3  -6   0 286.074 11.5427   8
  -3   6   0 295.956 12.9854   9
  -3   6  -1 172.613 9.03128   3
  -3  -6  -1 208.608 9.58968   3
  -3  -6  -1 205.303 9.49100   1
  -3   6  -1 211.101 9.40662   1
  -3  -6  -1 220.926 9.94644  17
  -3  -6  -1 201.799 12.2701  18
   3   6   1 209.277 9.50211  17
  -3  -6  -1 216.869 10.1072   6
   3   6   1 216.548 8.97306  12
   3  -6   1 200.354 11.4453  11
  -3   6  -1 190.999 11.4976  11
  -3  -6  -1 219.250 9.38802  10
   3  -6   1 199.191 9.56341   8
  -3  -6  -2 256.945 11.9030   1
  -3   6  -2 257.560 11.7644   1
  -3  -6  -2 282.550 11.6041  17
  -3   6  -2 270.892 11.3616  18
   3   6   2 272.867 12.2351  15
  -3  -6  -2 258.354 12.0960   3
  -3  -6  -2 254.432 11.7975   6
  -3   6  -2 260.409 12.0359   3
   3   6   2 267.372 10.7159  12
  -3   6  -2 265.543 13.9533  11
  -3  -6  -2 269.597 11.4062  10
   3  -6   2 275.084 13.5721  11
   3  -6   2 264.638 11.6400   8
  -3  -6  -3 8.07004 4.23123   3
  -3   6  -3 4.86163 4.21218   3
  -3  -6  -3 2.80120 4.40793   1
  -3   6  -3 2.25284 4.27265   1
  -3  -6  -3-0.35122 2.67175  17
   3   6   3 2.62204 4.66932  15
   3   6   3-0.28249 1.88602  12
   3  -6   3-0.57356 2.95743  11
  -3   6  -3-1.26552 3.95652  11
  -3  -6  -3 1.57987 2.09563  10
   3  -6   3-1.60912 2.54044   8
   3  -6   4 205.993 14.3417   2
  -3  -6  -4 222.633 12.6460   1
  -3   6  -4 225.395 12.2581   1
   3   6   4 206.273 14.5202   2
  -3  -6  -4 201.325 9.89240  17
   3   6   4 194.053 11.3507  15
  -3  -6  -4 220.714 12.7681   3
  -3   6  -4 211.756 12.3594   3
   3  -6   4 199.994 11.7058  11
   3   6   4 182.428 8.82005  12
  -3   6  -4 212.187 12.7286  11
   3  -6   4 214.850 10.6864   8
   3   6   5 74.5897 5.34357  12
   3  -6   5 88.5746 7.58840  11
  -3  -6  -5 74.2054 5.95610  17
   3   6   5 75.3579 8.20735  15
   3   6   5 76.1110 11.2672   2
   3  -6   5 86.1493 11.7201   2
   3  -6   6 196.549 11.6673  11
   3  -6   6 197.607 15.9870   7
   3   6   6 169.785 14.0371   2
   3  -6   6 156.011 14.1194   2
   3  -6   7 340.581 16.5185  11
   3   6   7 305.943 19.0545   2
   3  -6   7 295.596 19.4080   2
   3  -6   7 316.218 20.3539   7
   3   6   8 194.397 16.1939   2
   3  -6   8 208.544 16.8448   2
   3  -6   8 200.972 17.8827   7
   3  -6   9 59.1584 12.1715   7
   3   6   9 75.0965 11.5706   2
   3  -6   9 74.9787 11.6607   2
   3  -6  10 24.7054 11.1364   7
   3   6  10 27.4135 10.1168   2
   3  -6  10 32.8763 10.6016   2
  -3  -6 -10 32.1953 5.77064  10
  -3   7  12 40.6688 5.50727  16
   3  -7 -12 27.1499 8.41680  15
  -3  -7  11 20.8701 4.44055  14
   3  -7 -11 12.9805 6.73808  15
  -3   7  11 24.8195 4.28201  16
  -3  -7  10-1.61406 2.81464  14
   3  -7 -10 15.8798 8.25595   4
   3   7 -10 1.73326 6.63667   4
   3  -7 -10 3.16996 5.98745  15
  -3  -7   9-2.03755 2.62652  14
   3  -7  -9-1.54144 6.05756   4
   3   7  -9 3.80411 5.94178   4
   3  -7  -9 4.31077 4.96199  15
  -3  -7   8 240.651 11.8069  14
   3  -7  -8 260.515 14.8810   4
   3   7  -8 209.049 13.4283   4
   3  -7  -8 220.669 11.7913  10
   3  -7  -8 262.300 14.0177  15
   3   7  -7 77.1371 7.93678   2
   3  -7  -7 73.5455 7.85600   2
   3   7  -7 69.6654 5.54889  16
   3  -7  -7 65.6955 7.48605  15
   3  -7  -7 75.4251 8.15204   4
   3   7  -7 79.2189 7.96388   4
  -3  -7   7 78.6936 6.23109  14
   3   7  -7 70.0869 5.71512  13
   3   7  -7 68.3495 8.72874   7
   3  -7  -7 66.4400 5.36493   3
   3   7  -6 2371.10 67.5149   3
   3   7  -6 2375.82 69.3052   2
   3  -7  -6 2350.81 67.4236   3
   3  -7  -6 2441.62 69.3671   2
   3   7  -6 2353.32 68.0991  16
   3   7  -6 2309.72 75.9873  18
   3  -7  -6 2310.67 69.9819  15
   3   7  -6 2290.92 67.9597  14
   3   7  -6 2581.47 69.5004   6
   3  -7  -6 2402.31 69.8380   4
   3   7  -6 2313.76 69.7124   4
  -3  -7   6 2429.00 68.8052  14
   3   7  -6 2335.48 68.0088  13
  -3   7   6 2353.55 67.2039  10
   3  -7  -6 2301.72 69.9784   9
   3   7  -6 2422.86 70.0448   7
   3   7  -5 372.633 13.5726   3
   3  -7  -5 338.007 13.2153   3
   3   7  -5 361.834 14.7258   2
   3  -7  -5 402.732 14.9964   2
   3   7  -5 352.061 13.6946   1
   3  -7  -5 375.854 13.8480   1
   3   7  -5 333.635 19.2244  18
   3   7  -5 367.564 14.2757  16
   3   7  -5 362.183 14.0205  14
   3  -7  -5 374.403 15.4847  15
   3  -7  -5 380.006 15.0914   4
   3   7  -5 369.866 15.0175   4
   3   7  -5 316.176 12.7232   5
   3   7  -5 358.342 14.7035   6
  -3  -7   5 366.670 14.3420  14
   3   7  -5 368.146 14.2194  13
  -3   7   5 345.762 13.6758  10
   3  -7  -5 376.105 15.7534   9
   3  -7  -5 375.175 13.9373   7
   3   7  -5 368.252 15.2486   7
  -3   7   5 361.124 13.3799   8
   3   7  -4 286.013 11.0202   3
   3  -7  -4 268.360 10.8058   3
   3  -7  -4 285.899 11.6735   2
   3   7  -4 297.763 11.8968   2
   3   7  -4 294.821 11.3394   1
   3  -7  -4 274.755 11.1233   1
   3   7  -4 289.905 17.1126  18
   3  -7  -4 276.244 12.3829  15
   3   7  -4 285.105 11.5029  14
   3   7  -4 289.303 11.0689   5
   3   7  -4 302.458 12.3138   6
   3   7  -4 294.334 11.9572  13
  -3   7   4 280.276 11.8625  10
  -3  -7   4 294.996 10.2176  11
   3  -7  -4 267.499 10.8527   7
   3   7  -4 296.349 12.3380   7
  -3   7   4 275.920 11.2280   8
   3  -7  -4 259.269 12.8230   9
   3   7  -3 173.289 7.65382   3
   3  -7  -3 180.521 7.64508   3
   3   7  -3 175.989 7.84145   1
   3  -7  -3 163.034 7.63470   1
   3   7  -3 165.224 9.38963  17
   3   7  -3 142.578 11.5147  18
   3  -7  -3 165.591 8.77759  15
   3   7  -3 167.171 7.77250  14
   3   7  -3 172.826 8.43981   6
   3  -7  -3 167.954 7.65829   5
   3   7  -3 179.452 7.96233   5
  -3  -7   3 155.029 8.14268  13
  -3  -7   3 153.539 7.24007  11
   3   7  -3 165.027 6.96740  10
   3  -7  -3 167.105 10.4765  11
  -3   7   3 167.823 8.60912  10
   3   7  -3 157.762 8.13228   7
  -3   7   3 178.024 8.24677   8
   3  -7  -3 169.738 9.67772   9
  -3  -7   3 163.057 7.94682   9
   3   7  -2 328.895 12.3222   3
  -3  -7   2 337.645 11.8951   3
  -3   7   2 335.035 11.8744   3
   3  -7  -2 343.166 12.3201   3
   3   7  -2 340.471 12.6633   1
   3  -7  -2 314.536 12.3421   1
   3   7  -2 320.691 16.9593  18
   3   7  -2 335.703 13.8579  17
  -3  -7   2 333.876 16.6704  18
   3   7  -2 323.092 12.0730  14
   3   7  -2 341.044 13.0339   6
   3  -7  -2 337.091 12.5845   5
  -3  -7   2 302.932 12.8275  13
   3  -7  -2 311.835 15.3982  11
   3   7  -2 341.490 11.6240  10
  -3   7   2 341.544 14.3230   9
  -3   7   2 326.857 12.9136   8
  -3   7   1 4.22960 1.71899   3
   3   7  -1 5.65853 2.72120   3
   3  -7  -1 7.75088 2.67382   3
  -3  -7   1 5.45888 1.76136   3
  -3  -7   1 0.66922 4.95305  18
   3   7  -1 8.74802 2.58710  17
   3  -7  -1 8.77480 3.37922  18
  -3  -7   1 7.44904 2.74329   6
   3  -7  -1 7.41725 2.27428   5
   3   7  -1 7.17185 2.85554   1
  -3  -7   1 3.11634 1.68742   1
  -3   7   1 5.06105 1.72402   1
   3  -7  -1 2.74424 2.30784   1
   3   7  -1 5.67052 1.68377  14
  -3  -7   1 3.16283 1.97023  13
   3  -7  -1 6.16463 3.40707  11
  -3  -7   1 4.46754 2.03951  10
  -3   7   1 1.82443 2.64837   9
  -3   7   1 8.31359 2.41585   8
  -3   7   0 10.5633 2.25246   3
  -3  -7   0 7.28835 2.14822   3
  -3   7   0 14.1051 2.44131   1
  -3  -7   0 8.49268 2.20748   1
  -3  -7   0 4.71595 5.06062  18
   3   7   0 8.53492 2.52696  17
  -3  -7   0 5.74101 2.68775   6
   3   7   0 8.00597 1.68064  14
  -3  -7   0 5.42006 2.27405  10
   3  -7   0 10.6596 3.76812  11
  -3   7   0 11.0999 3.68027  11
  -3   7   0 14.7022 3.76053   9
   3  -7   0 12.4072 2.88494   8
  -3  -7  -1 20.6552 3.36190   3
  -3   7  -1 26.3099 3.60829   3
  -3  -7  -1 19.5361 3.32322   1
  -3   7  -1 24.3040 3.39928   1
  -3  -7  -1 18.9198 3.80927  17
  -3  -7  -1 26.8914 6.87713  18
   3   7   1 25.3373 3.33296  17
   3   7   1 16.6410 4.13111  15
  -3  -7  -1 12.8791 3.13900   6
   3   7   1 18.9386 2.17701  14
   3   7   1 24.7502 3.13324  12
  -3   7  -1 18.8719 4.72391  11
  -3  -7  -1 20.0930 3.16180  10
   3  -7   1 18.1843 4.60411  11
  -3   7  -1 19.5260 4.18272   9
   3  -7   1 20.0167 3.35417   8
  -3  -7  -2 17.7750 3.99308   3
  -3   7  -2 23.2025 4.12078   3
  -3  -7  -2 27.8379 4.22613   1
  -3   7  -2 26.6864 4.19074   1
  -3  -7  -2 20.8889 3.66500  17
  -3   7  -2 24.1498 4.52515  18
   3   7   2 25.8645 4.99635  15
  -3  -7  -2 19.9522 3.76881   6
   3   7   2 26.5582 3.27887  12
  -3   7  -2 18.1061 4.92392  11
  -3  -7  -2 25.0302 3.54905  10
   3  -7   2 23.7416 4.79199  11
   3  -7   2 21.6166 3.67873   8
  -3   7  -3 52.6751 6.04926   3
  -3   7  -3 59.6614 6.45903   1
  -3  -7  -3 57.6596 6.58941   1
  -3  -7  -3 48.6637 5.00576  17
   3   7   3 47.9334 6.05626  15
  -3  -7  -3 62.4057 6.45955   3
  -3  -7  -3 51.2155 5.36276   6
   3   7   3 57.7686 4.49575  12
  -3   7  -3 46.0880 6.83577  11
  -3  -7  -3 46.5013 4.82107  10
   3  -7   3 43.3454 5.92912  11
   3  -7   3 44.5398 5.14746   8
  -3  -7  -4 786.723 27.3409   1
   3  -7   4 690.441 29.1863   2
   3   7   4 644.573 28.2834   2
  -3  -7  -4 752.584 24.7069  17
   3   7   4 728.570 25.9894  15
   3   7   4 744.027 23.7031  12
  -3   7  -4 692.266 26.6339   3
  -3  -7  -4 749.888 25.9715   6
  -3  -7  -4 712.151 27.0737   3
  -3   7  -4 696.459 28.3519  11
  -3  -7  -4 715.637 25.5140  10
   3  -7   4 712.243 27.2575  11
   3  -7   4 773.058 25.8255   8
  -3  -7  -5 5.63082 3.14062  10
   3   7   5 7.32732 2.61794  12
   3  -7   5 0.65333 3.61185  11
   3   7   5 14.5607 8.41126   2
   3  -7   5 11.4347 9.25074   2
   3  -7   5 18.3806 9.51360   7
  -3  -7  -5 8.17002 3.32238   6
  -3  -7  -6 22.7107 4.29002  10
   3  -7   6 32.2188 5.50957  11
   3   7   6 23.2656 8.52948   2
   3  -7   6 21.2758 8.89188   2
   3  -7   6 13.7185 9.11038   7
  -3  -7  -7 12.4966 3.86824  10
   3  -7   7-1.03572 9.25029   7
   3   7   7-12.4460 9.26875   2
   3  -7   7 4.73467 8.86224   2
   3  -7   7 1.40416 3.77780  11
   3  -7   8 103.545 13.7774   7
  -3  -7  -8 96.6229 8.29144  10
   3   7   8 98.6934 12.2682   2
   3  -7   8 100.906 12.8248   2
   3  -7   9-13.6862 10.4809   7
   3  -7   9 5.52504 4.69097  14
   3  -7   9 4.18416 7.84876   2
  -3  -7  -9-2.69521 3.47431  10
   3  -7  10 5.42700 9.45390   2
  -3  -8  12 97.0503 8.32258  14
   3  -8 -12 74.4024 10.3719  15
  -3   8  12 96.4238 8.18645  16
  -3  -8  11 8.88897 3.52175  14
   3  -8 -11 5.32800 6.89372  15
  -3  -8  10 77.0733 6.93137  14
   3  -8 -10 75.8186 9.56066  15
  -3  -8   9 37.6567 4.98116  14
   3  -8  -9 51.0087 8.65141   4
   3  -8  -9 33.3263 7.00605  15
  -3  -8   8 200.767 10.6018  14
   3  -8  -8 183.515 12.6379   4
   3   8  -8 176.984 12.1965   4
   3   8  -8 196.032 16.6463  18
   3  -8  -8 180.751 12.0917  15
   3  -8  -7 20.3649 5.77716  15
   3  -8  -7 25.6280 6.31164   4
   3   8  -7 27.9799 6.16294   4
  -3  -8   7 23.1129 3.99135  14
   3   8  -7 15.9722 3.58681  13
   3   8  -7 3.34507 7.78121  18
   3   8  -7 21.7312 7.43328   7
   3  -8  -6 2.12658 4.36060  15
   3   8  -6 1.19923 2.29253  16
   3   8  -6 3.34420 3.73206   6
   3  -8  -6 2.39958 4.55178   4
   3   8  -6 4.27989 4.49068   4
  -3  -8   6-0.43582 2.21565  14
   3   8  -6 6.08990 2.87702  13
   3   8  -6 5.04888 3.45256  14
   3   8  -6 3.13259 7.03259  18
   3  -8  -6 7.40229 3.63194   9
   3   8  -6 10.8039 5.35456   7
  -3   8   6 4.77648 2.56148  10
   3   8  -5 42.8474 4.08259   1
   3  -8  -5 50.7506 4.42410   1
   3   8  -5 35.5325 8.64899  18
   3  -8  -5 52.5942 5.55130  15
   3   8  -5 51.7406 4.99741  14
   3   8  -5 35.5245 4.87103   4
   3   8  -5 49.5305 5.48822   6
   3  -8  -5 37.2954 5.06745   4
   3   8  -5 45.6105 4.07634   5
   3   8  -5 61.9761 5.04016  13
  -3  -8   5 50.3764 4.76184  14
  -3   8   5 61.2404 5.08390  10
   3  -8  -5 58.7333 6.06469   9
   3   8  -5 46.1343 5.68754   7
  -3   8   5 54.2268 4.49103   8
   3  -8  -4 1372.80 41.3579   2
   3   8  -4 1353.52 40.9527   1
   3  -8  -4 1373.33 40.9309   1
   3   8  -4 1385.42 49.5484  18
   3  -8  -4 1438.96 43.0369  15
   3   8  -4 1348.00 41.5633  14
   3   8  -4 1457.15 42.9252   6
   3   8  -4 1353.36 41.2533   5
   3   8  -4 1423.92 42.1115  13
  -3  -8   4 1462.22 42.2889  14
  -3   8   4 1417.25 42.4109  10
   3   8  -4 1435.96 42.2048   7
  -3   8   4 1350.99 41.4984   8
   3  -8  -4 1362.18 44.2405   9
   3  -8  -3 6.40461 2.20142   3
   3  -8  -3 11.1909 2.41273   1
   3   8  -3 9.93625 2.52354   1
   3   8  -3 7.68877 3.29974  17
   3   8  -3 10.7095 6.21831  18
   3  -8  -3 11.6882 3.27495  15
   3   8  -3 8.64304 2.32864   5
   3  -8  -3 9.83838 2.43857   5
   3   8  -3 8.71869 2.91225   6
   3   8  -3 7.48761 2.53712  14
  -3  -8   3 10.0468 2.56862  13
  -3   8   3 8.05673 3.07310  10
   3  -8  -3 9.72168 3.80866  11
  -3  -8   3 10.4048 2.83246  11
   3  -8  -3 7.72759 3.42455   9
  -3  -8   3 5.43093 2.65034   9
   3   8  -3 7.70704 3.06880   7
  -3   8   3 9.41284 2.57129   8
   3  -8  -2 799.757 24.3872   3
  -3  -8   2 822.080 23.9686   3
  -3   8   2 775.238 23.7855   3
   3   8  -2 799.746 24.8622   1
   3  -8  -2 741.389 24.4862   1
   3   8  -2 792.810 26.8442  17
   3   8  -2 775.264 31.0060  18
  -3  -8   2 753.063 29.9380  18
   3   8  -2 778.519 24.5087  14
   3   8  -2 784.264 25.6629   6
   3  -8  -2 801.503 25.1315   5
  -3  -8   2 788.355 25.6209  13
   3  -8  -2 723.882 28.8473  11
  -3  -8   2 742.612 24.8293  11
   3   8  -2 776.398 23.9819  10
  -3  -8   2 782.594 25.8735   9
  -3   8   2 740.427 26.8492   9
  -3   8   2 771.716 25.6205   8
  -3  -8   1 43.2892 3.52814   3
  -3   8   1 39.3813 3.38472   3
   3  -8  -1 40.7963 4.32723   3
  -3  -8   1 44.8406 3.46121   1
   3   8  -1 46.1886 4.71778   1
   3  -8  -1 38.3467 4.29874   1
  -3  -8   1 37.4634 7.29091  18
   3   8  -1 37.6259 4.36426  17
   3   8  -1 47.5069 3.71981  14
   3  -8  -1 43.7418 4.26243   5
  -3  -8   1 41.1582 4.14375  13
   3  -8  -1 42.1518 5.93579  11
  -3  -8   1 43.5251 4.36379  10
  -3   8   1 43.0739 5.20917   9
  -3   8   1 44.3645 4.44839   8
  -3  -8   0 17.1084 2.57923   3
  -3   8   0 22.5312 2.81201   3
  -3  -8   0 18.0376 2.63080   1
  -3  -8   0 19.3116 6.64759  18
   3   8   0 18.2929 3.46422  17
  -3  -8   0 17.2578 3.72528   6
   3  -8   0 18.9206 3.21783   5
   3   8   0 11.5017 2.07029  14
  -3  -8   0 17.2120 3.39955  10
   3  -8   0 12.3539 4.18342  11
  -3   8   0 13.1312 3.99220   9
  -3  -8  -1 19.9049 3.38838   3
  -3   8  -1 23.4132 3.18611   3
  -3  -8  -1 23.9201 3.43274   1
  -3  -8  -1 35.6626 7.42539  18
   3   8   1 23.9885 3.52205  17
   3   8   1 27.5334 4.68154  15
  -3  -8  -1 19.0339 3.97711   6
   3   8   1 17.9628 3.17078  12
  -3  -8  -1 23.3451 3.65575  10
  -3   8  -1 18.5252 5.05238  11
   3  -8   1 12.3769 4.20655  11
  -3   8  -1 20.6829 4.64503   9
   3  -8   1 21.0100 3.60214   8
  -3  -8  -2 626.587 22.0370   3
  -3   8  -2 602.516 21.7635   3
  -3  -8  -2 651.461 21.9668   1
  -3  -8  -2 624.967 22.1827  17
   3   8   2 636.364 22.1206  15
  -3  -8  -2 644.456 23.4051   6
   3   8   2 624.936 21.1199  12
  -3  -8  -2 628.764 22.5170  10
  -3   8  -2 629.669 25.5022  11
   3  -8   2 603.952 24.9258  11
   3  -8   2 638.213 22.4718   8
  -3  -8  -3 24.6184 5.12976   3
  -3   8  -3 24.8565 4.93944   3
   3  -8   3 40.6103 8.89449   2
  -3  -8  -3 23.8811 4.30435  17
   3   8   3 24.3375 5.28719  15
  -3  -8  -3 22.2017 4.59115   6
   3   8   3 24.7849 3.46800  12
  -3   8  -3 18.7255 5.94332  11
  -3  -8  -3 29.9417 4.42607  10
   3  -8   3 24.4828 5.25030  11
   3  -8   3 20.7725 4.31503   8
  -3  -8  -4 23.1574 6.20492   3
  -3   8  -4 29.5767 5.78599   3
   3   8   4 17.0879 5.57390  15
   3   8   4 16.8196 3.13196  12
  -3  -8  -4 16.0662 3.86518  10
   3  -8   4 15.7324 4.55251  11
   3  -8   4 26.6242 9.62376   2
   3   8   4 37.7132 9.21929   2
  -3  -8  -4 14.3189 4.03631   6
  -3  -8  -5 29.5570 4.80647  10
  -3  -8  -5 34.9308 5.11163   6
   3  -8   5 40.3736 9.98627   7
   3  -8   5 34.8853 9.15598   2
   3  -8   5 45.7912 6.36348  11
  -3  -8  -5 49.9992 7.43182   3
   3  -8   6 899.267 37.2862   7
  -3  -8  -6 929.479 32.0444   6
   3  -8   6 941.642 33.8716  11
  -3  -8  -6 945.157 32.5268  10
   3  -8   6 883.397 36.2702   2
   3  -8   7-1.03535 9.33657   7
  -3  -8  -7 3.16328 3.49369  10
   3  -8   7-2.18428 4.02073  11
   3  -8   7-2.80830 9.18038   2
  -3  -8  -8 102.740 8.71462  10
   3  -8   8 95.9187 13.9300   7
   3  -8   8 123.665 10.1173  11
  -3  -8  -9 2.84903 4.13042  10
   3  -8   9 2.16310 4.81399  14
   3  -8   9-2.27854 9.92210   7
  -3  -9  12-3.20701 3.63174  14
  -3   9  12 1.28716 2.78809  16
  -3  -9  11 6.21105 3.73014  14
   3  -9 -11 11.8201 7.19397  15
  -3  -9  10 7.14704 3.61764  14
   3  -9 -10 11.7178 6.74660  15
   3   9 -10 11.2405 8.42975  18
  -3  -9   9 31.0882 4.74456  14
   3  -9  -9 23.6314 6.91250  15
   3   9  -9 21.3501 8.62078  18
  -3  -9   8 202.658 11.3262  14
   3  -9  -8 232.258 13.7031  15
   3   9  -8 238.023 18.2543  18
   3   9  -7 153.913 15.0090  18
   3  -9  -7 178.341 11.1903  15
  -3  -9   7 157.165 9.24194  14
  -3   9   7 137.876 8.02449  10
   3  -9  -7 144.241 10.4014   9
   3   9  -6 1599.80 59.9784  18
   3  -9  -6 1712.04 53.6285  15
   3   9  -6 1869.89 53.8475   6
   3   9  -6 1708.19 51.4040  13
  -3  -9   6 1705.49 52.3578  14
  -3   9   6 1755.49 51.2691  10
   3  -9  -6 1692.12 54.3648   9
   3   9  -5 74.7077 10.6327  18
   3  -9  -5 69.1898 6.96448  15
   3   9  -5 69.5673 5.88035  14
   3   9  -5 89.2452 7.24120   6
   3   9  -5 64.2735 5.10420   5
   3   9  -5 72.7494 5.71070  13
  -3  -9   5 73.4392 5.89790  14
  -3   9   5 59.4260 5.50237  10
   3  -9  -5 75.5441 7.20907   9
  -3   9   5 75.4453 5.77886   8
   3   9  -4 214.547 15.8009  18
   3  -9  -4 213.466 10.8795  15
   3   9  -4 218.580 10.1358  14
   3   9  -4 234.367 11.3537   6
   3   9  -4 210.250 9.86350   5
  -3  -9   4 228.537 10.3816  14
  -3   9   4 203.633 10.4748  10
  -3   9   4 192.210 9.92093   8
   3  -9  -4 213.362 12.2090   9
   3   9  -3 111.265 11.5861  18
   3   9  -3 96.0650 7.48562  17
   3  -9  -3 103.860 6.96434  15
   3   9  -3 87.2876 6.03131  14
   3   9  -3 100.923 7.08522   6
   3   9  -3 86.7483 6.01430   5
   3  -9  -3 93.1740 5.98334   5
  -3  -9   3 92.8071 6.30823  13
   3  -9  -3 81.1155 8.18688  11
  -3   9   3 85.7208 6.70948  10
  -3   9   3 108.004 6.76528   8
   3  -9  -3 98.0673 8.03990   9
  -3  -9   3 94.8270 6.79587   9
  -3  -9   2 18.2842 2.40226   3
   3   9  -2 19.6211 4.03778  17
  -3  -9   2 23.6827 7.40023  18
   3  -9  -2 19.4861 3.49301  15
   3   9  -2 11.9781 2.83542  14
  -3  -9   2 14.3082 3.08197  13
  -3  -9   2 13.2524 3.45480   9
  -3   9   2 14.1330 3.10180   8
   3   9  -2 18.2534 2.70647  10
   3  -9  -2 17.5551 5.02875  11
  -3  -9   2 18.7312 3.59849  11
   3  -9  -2 17.3664 3.17318   5
   3   9  -2 13.4787 3.27943   6
  -3  -9   1 22.6299 2.71334   3
   3  -9  -1 27.1613 3.82489   5
   3   9  -1 30.6150 4.31536  17
  -3  -9   1 30.3093 7.58829  18
   3   9  -1 25.6915 3.33503  14
  -3  -9   1 25.2264 3.60233  13
   3  -9  -1 14.1065 4.86315  11
  -3   9   1 14.4573 4.30515   9
  -3   9   1 20.2038 3.54482   8
   3   9  -1 23.1070 3.03694  10
  -3  -9   0 30.5199 3.20008   3
  -3  -9   0 19.9645 4.16285   6
   3  -9   0 27.5572 3.92089   5
  -3  -9   0 29.9566 7.84080  18
   3   9   0 26.4693 4.05358  17
   3   9   0 22.7581 3.03165  14
  -3  -9   0 26.6651 4.04841  10
   3  -9   0 35.8698 6.20259  11
  -3   9   0 21.1895 4.62515   9
  -3   9   0 29.2442 4.20436   8
  -3  -9  -1 22.8183 3.37276   3
  -3  -9  -1 24.3804 7.70212  18
   3   9   1 32.7001 4.06644  17
  -3  -9  -1 25.4187 4.65828   6
   3  -9   1 24.6825 3.99260   5
  -3   9  -1 25.9422 5.71196  11
   3  -9   1 30.5073 5.88650  11
  -3  -9  -1 22.6389 3.92541  10
  -3   9  -1 22.4470 4.77740   9
  -3  -9  -2 21.4690 7.68043  18
   3   9   2 35.4422 4.31991  17
  -3  -9  -2 31.9751 4.85961  17
   3   9   2 38.1576 4.20928  12
  -3  -9  -2 42.9682 5.66731   6
  -3   9  -2 40.5861 6.66963  11
  -3  -9  -2 28.0638 4.48560  10
   3  -9   2 39.8358 6.49246  11
  -3   9  -2 41.2908 6.30427   9
   3   9   3 55.8788 4.89619  12
  -3  -9  -3 57.1109 6.07736  10
   3  -9   3 40.3440 6.52293  11
  -3  -9  -3 52.0810 5.53760  17
  -3  -9  -3 40.7081 5.59451   6
  -3  -9  -4 758.783 28.0040   6
   3  -9   4 816.279 32.3586   7
  -3  -9  -4 761.354 27.8708  10
   3  -9   4 774.101 29.7991  11
  -3  -9  -5 12.1702 4.14116  10
   3  -9   5 8.07739 4.26573  11
  -3  -9  -5 10.6964 3.94074   6
   3  -9   5 2.72323 8.11087   7
  -3  -9  -6 174.668 11.0333   6
  -3  -9  -6 174.973 11.3636  10
   3  -9   6 185.359 15.8118   7
   3  -9   6 200.901 12.6430  11
   3  -9   7 1.02972 9.67948   7
  -3  -9  -7 2.72584 3.66586  10
   3  -9   7 1.51343 3.90210  11
   3  -9   8 57.5874 11.6037   7
  -3  -9  -8 47.4361 6.86051  10
   3  -9   9 16.5066 5.94329  14
   3  -9   9 1.13173 10.2600   7
   3  10 -11 3.03513 8.59275  18
   3 -10 -11-1.85264 7.64037  15
  -3 -10  11-2.58991 3.66643  14
   3  10 -10 23.4298 9.78577  18
   3 -10 -10 21.4249 7.39891  15
  -3 -10  10 13.6905 4.02933  14
   3  10  -9-1.39672 8.82021  18
   3 -10  -9 2.35204 5.80040  15
  -3 -10   9-0.59318 2.92047  14
   3 -10  -8 153.818 11.3758  15
   3  10  -8 182.471 16.5298  18
   3 -10  -8 156.609 11.4309   9
  -3 -10   8 156.634 9.82976  14
   3 -10  -7 58.4640 7.41645  15
   3  10  -7 55.0366 11.2087  18
   3 -10  -7 46.6866 6.47932   9
  -3 -10   7 58.2145 5.76702  14
   3 -10  -6 29.3432 5.81715  15
  -3 -10   6 31.2279 4.42516  14
   3  10  -6 42.6442 4.67409  13
   3  10  -6 53.6484 10.0493  18
   3 -10  -6 42.3279 6.20516   9
   3  10  -5 165.699 14.8979  18
   3 -10  -5 159.782 10.0532  15
   3  10  -5 192.213 10.8631   6
   3  10  -5 143.685 8.30497   5
   3  10  -5 153.869 8.71329  13
  -3 -10   5 159.171 9.09382  14
  -3  10   5 151.063 8.93016  10
   3 -10  -5 166.664 11.0728   9
  -3  10   5 166.609 9.00073   8
   3  10  -4 618.810 30.3873  18
   3 -10  -4 653.027 24.0335  15
   3  10  -4 683.029 23.3472  14
   3  10  -4 707.307 24.9265   6
   3  10  -4 680.887 23.4305   5
  -3 -10   4 673.592 23.5460  14
  -3  10   4 700.145 24.2914  10
  -3  10   4 694.373 23.8394   8
   3 -10  -4 675.747 26.5441   9
   3  10  -3 11.2586 7.78905  18
   3  10  -3 9.38402 4.03176  17
   3 -10  -3 6.44915 3.35154  15
   3  10  -3 9.62498 2.86844   5
   3  10  -3 8.18143 3.62468   6
  -3 -10   3 6.72040 2.76219  13
   3  10  -3 12.7359 3.43470  14
  -3  10   3 11.9159 3.96055  10
   3 -10  -3 9.45631 4.57525  11
   3 -10  -3 8.78387 4.05893   9
  -3 -10   3 8.66945 3.49377   9
  -3  10   3 6.47158 3.10800   8
   3  10  -2 148.951 9.39780  17
  -3 -10   2 136.473 12.5844  18
   3 -10  -2 163.091 8.70997  15
   3  10  -2 153.485 8.04837  14
  -3 -10   2 156.179 8.48529  13
   3  10  -2 149.209 8.99055   6
   3 -10  -2 165.652 8.57768   5
   3  10  -2 147.997 8.44591   5
   3 -10  -2 149.936 11.5719  11
  -3 -10   2 164.394 9.65596   9
  -3  10   2 159.304 9.02783   8
  -3 -10   1-1.71791 7.20572  18
   3  10  -1 5.60721 3.25347  17
  -3 -10   1 0.40582 2.29782  13
   3  10  -1-0.59762 2.39272  14
   3 -10  -1-2.41956 4.45383  11
  -3  10   1-3.46805 3.95909   9
  -3  10   1 1.38043 2.60538   8
   3  10  -1-0.92422 2.07469  10
   3  10  -1 1.67020 2.88377   6
   3 -10  -1 1.54093 2.61658   5
  -3 -10   0 5.24753 6.91962  18
   3  10   0 10.4033 3.53852  17
   3 -10   0 12.8956 5.47735  11
  -3 -10   0 4.43290 3.26432  10
  -3  10   0 5.31886 3.80881   9
  -3  10   0 3.35255 2.87807   8
   3 -10   0 10.1596 3.29849   5
  -3 -10  -1 64.4041 10.4880  18
   3  10   1 82.0202 6.37759  17
  -3 -10  -1 89.1843 7.31827  10
   3 -10   1 78.5185 8.74557  11
  -3  10  -1 84.3214 8.01385   9
   3 -10   1 82.6712 6.62370   5
  -3 -10  -1 83.8160 7.66792   6
  -3 -10  -2 671.932 26.1001   6
   3  10   2 701.235 23.7774  17
   3 -10   2 715.520 28.4064  11
  -3 -10  -2 677.798 25.4775  10
  -3 -10  -3 14.4867 4.28597   6
  -3 -10  -3 10.0670 3.96190  10
   3 -10   3 3.92854 4.66792  11
  -3 -10  -4 62.1309 6.98268   6
   3 -10   4 76.8054 8.24627  11
  -3 -10  -4 76.5439 7.28562  10
  -3 -10  -5 3.23644 3.88246   6
  -3 -10  -5-0.66336 3.56852  10
   3 -10   5 6.22145 4.71483  11
   3 -10   6 409.845 19.4484  11
  -3 -10  -6 362.571 17.6717   6
  -3 -10  -6 373.486 18.1693  10
   3 -10   7 2.36605 4.06734  11
  -3 -10  -7 3.67412 4.05868  10
  -3 -10  -8 139.506 11.1968  10
   3 -10   8 176.638 12.4117  11
   3 -11 -11 4.71543 7.50651  15
   3  11 -10-1.52017 9.21571  18
   3 -11 -10-2.62466 6.87636  15
  -3 -11  10-1.29617 3.75815  14
   3  11  -9 11.6176 9.27093  18
   3 -11  -9 20.8955 6.83128  15
  -3 -11   9 16.7063 4.08258  14
   3 -11  -8 204.361 13.2109  15
   3  11  -8 153.709 16.5899  18
   3 -11  -8 156.194 12.0090   9
  -3 -11   8 184.896 10.9453  14
   3 -11  -7-1.32523 4.79608  15
   3  11  -7-3.96309 8.09319  18
   3 -11  -7 0.76140 3.86778   9
  -3 -11   7 2.19872 2.66238  14
   3 -11  -6 484.772 20.4360  15
   3  11  -6 456.789 26.5558  18
   3 -11  -6 482.205 21.6203   9
  -3 -11   6 494.543 19.4244  14
   3 -11  -5 63.0505 6.85876  15
  -3 -11   5 70.0626 6.03616  14
   3  11  -5 71.3833 11.7561  18
   3 -11  -5 69.1071 7.67645   9
  -3  11   5 65.1249 5.91333   8
   3 -11  -4 155.263 9.66035  15
   3  11  -4 153.960 8.92119   5
  -3 -11   4 157.827 8.85183  14
   3  11  -4 187.258 15.9087  18
  -3  11   4 139.716 8.79076   8
   3 -11  -4 165.143 11.5152   9
   3  11  -3 1.76147 3.74479  17
   3 -11  -3 1.24989 3.33698  15
   3  11  -3 6.20352 2.93313   5
   3  11  -3 4.57342 3.40447  14
  -3 -11   3 4.12529 2.68167  13
   3 -11  -3 6.02076 4.87058  11
   3 -11  -3 5.16342 4.42452   9
  -3 -11   3-3.79123 3.58472   9
  -3  11   3 3.31554 3.35150   8
   3  11  -2 51.3861 6.03921  17
   3 -11  -2 50.2882 5.31477  15
   3  11  -2 58.4796 5.26687  14
  -3 -11   2 56.2842 5.24693  13
   3  11  -2 46.4521 5.22791   5
   3 -11  -2 58.3910 5.43650   5
   3 -11  -2 45.2104 7.54297  11
  -3 -11   2 47.9646 5.91656   9
  -3  11   2 53.9898 5.54842   8
   3  11  -1 25.6966 4.55506  17
  -3 -11   1 17.7567 3.70602  13
   3 -11  -1 22.5152 4.08617   5
   3 -11  -1 18.3330 5.64815  11
  -3 -11   1 23.5499 4.91615   9
  -3  11   1 21.0095 4.21081   8
   3  11   0 30.2270 4.72430  17
   3 -11   0 38.9593 7.15804  11
  -3  11   0 30.4422 4.74165   8
  -3 -11   0 41.4357 4.81513  13
   3  11   1 152.049 8.87257  17
   3 -11   1 157.144 12.1650  11
  -3 -11  -1 155.091 10.0603  10
  -3  11  -1 163.961 9.98349   8
  -3 -11  -2 45.4967 6.40212   6
   3  11   2 48.6562 4.96884  17
  -3 -11  -2 48.7009 6.02699  10
   3 -11   2 43.8602 7.22316  11
  -3 -11  -3 31.1298 5.48619   6
  -3 -11  -3 29.1412 5.25574  10
   3 -11   3 40.0041 6.76852  11
  -3 -11  -4 346.027 17.6174   6
  -3 -11  -4 389.896 18.1361  10
   3 -11   4 403.502 19.6500  11
  -3 -11  -5 3.51340 3.98184   6
  -3 -11  -5 9.38182 3.98850  10
   3 -11   5 4.89260 4.78565  11
   3 -11   6 3.27052 4.22067  11
  -3 -11  -6 12.8200 4.57612  10
   3 -11   7 0.81452 4.26108  11
  -3 -11  -7-0.78709 4.11759  10
   3 -11   8 40.5101 6.93003  11
  -3 -11  -8 41.0852 7.04035  10
   3 -11   8 31.7241 6.97095  14
   3  12 -10 15.6682 10.0932  18
   3 -12 -10 10.6843 7.18216  15
  -3 -12  10 14.7827 4.50088  14
   3  12  -9 7.54835 9.06748  18
   3 -12  -9 27.1164 7.20991  15
  -3 -12   9 18.0247 4.65064  14
   3 -12  -8 108.538 10.5925  15
   3  12  -8 121.560 15.2692  18
   3 -12  -8 117.117 10.6117   9
  -3 -12   8 109.251 8.48601  14
   3 -12  -7 33.3787 6.75646  15
   3  12  -7 13.8714 10.0729  18
   3 -12  -7 34.3862 6.28037   9
  -3 -12   7 30.9971 4.80340  14
   3 -12  -6 12.2442 5.33402  15
   3  12  -6 3.98691 8.31115  18
   3 -12  -6 9.65102 4.87804   9
  -3 -12   6 3.21801 2.72884  14
   3 -12  -5-0.54734 4.04964  15
  -3 -12   5 1.98733 2.44650  14
   3  12  -5-1.26632 8.52801  18
   3 -12  -5 0.79918 3.93492   9
  -3  12   5 3.46339 2.86928   8
   3  12  -4 703.742 33.9202  18
  -3 -12   4 770.584 26.0451  14
   3  12  -4 712.680 25.9595   5
   3 -12  -4 759.146 31.2402  11
  -3  12   4 771.210 26.6477   8
   3 -12  -4 718.826 29.3795   9
   3  12  -3 6.81004 4.13335  17
  -3 -12   3-1.28770 2.46018  13
   3  12  -3 4.38605 2.95467   5
   3 -12  -3-1.86386 4.80534  11
   3 -12  -3 1.60185 4.06870   9
  -3  12   3 3.09403 2.95547   8
   3  12  -2 79.6714 7.42716  17
  -3 -12   2 89.2111 6.54038  13
   3  12  -2 91.0922 7.05024   5
   3 -12  -2 75.9787 9.24758  11
  -3 -12   2 85.9611 7.71038   9
  -3  12   2 82.2791 7.01280   8
   3  12  -1 81.4338 7.08563  17
  -3 -12   1 92.8329 6.68434  13
   3  12  -1 80.2646 6.67189   5
   3 -12  -1 90.7351 10.1532  11
  -3 -12   1 92.3893 8.30536   9
  -3  12   1 86.8138 7.31068   8
   3  12   0 61.2481 5.97373  17
   3 -12   0 48.1507 7.78150  11
  -3  12   0 55.8401 5.91329   8
  -3 -12   0 56.9783 5.48855  13
   3  12   1 66.6851 5.97829  17
  -3  12  -1 56.7930 6.20173   8
   3 -12   1 67.6066 8.47786  11
  -3 -12  -1 59.2781 6.77661  10
   3  12   2 56.1165 5.39537  17
  -3 -12  -2 42.9281 6.06336  10
   3 -12   2 66.3247 8.39309  11
  -3 -12  -3 191.233 12.3018  10
   3 -12   3 202.497 13.9744  11
  -3 -12  -4 85.2118 8.66682   6
  -3 -12  -4 96.3460 9.08120  10
  -3 -12  -5 4.47674 4.47532   6
   3 -12   5 1.70591 4.33333  11
  -3 -12  -5 1.54796 4.43599  10
  -3 -12  -6 256.272 15.4398  10
   3 -12   6 265.563 15.7773  11
  -3 -12  -7 11.0007 5.29153  10
   3 -12   7-1.69223 4.90670  11
   3 -13 -10 12.6652 7.55424  15
   3  13  -9 46.8718 11.9471  18
   3 -13  -9 53.3858 9.11573  15
  -3 -13   9 42.7158 6.16920  14
  -3 -13   8 109.026 8.69291  14
   3 -13  -8 94.0024 10.0228   9
   3  13  -8 91.6778 13.9389  18
  -3 -13   7 79.4870 7.27437  14
   3 -13  -7 89.3877 9.66828   9
   3  13  -7 72.1915 12.8831  18
  -3 -13   6 309.979 14.6076  14
   3 -13  -6 285.764 16.9255   9
   3  13  -6 303.457 22.1370  18
  -3 -13   5 1.03894 2.59893  14
   3  13  -5 5.27893 7.65268  18
   3 -13  -5 3.44565 4.57058   9
  -3  13   5 1.60776 3.14386   8
  -3 -13   4 32.9535 4.31116  14
   3 -13  -4 19.8251 6.30530  11
   3 -13  -4 21.5020 6.08388   9
  -3  13   4 25.6239 4.75943   8
   3  13  -4 36.0859 4.86524   5
   3  13  -3 89.7325 8.22470  17
   3 -13  -3 85.0350 9.97001  11
  -3  13   3 77.0404 7.16285   8
   3 -13  -3 98.6355 9.74949   9
   3  13  -3 97.5335 7.57247   5
   3  13  -2 60.5852 6.67849  17
   3  13  -2 54.3047 5.89951   5
   3 -13  -2 59.3903 8.81295  11
  -3 -13   2 65.3287 7.36068   9
  -3  13   2 56.8675 6.16873   8
   3  13  -1 1.09750 3.43119  17
  -3 -13   1 0.45236 2.59235  13
   3  13  -1-1.03215 2.92209   5
   3 -13  -1 2.00529 5.09320  11
  -3 -13   1-0.69759 4.04502   9
  -3  13   1-2.31580 3.11407   8
   3  13   0 6.06322 3.60313  17
  -3 -13   0 8.46622 2.94213  13
   3 -13   0-2.96313 5.09345  11
  -3 -13   0 5.84212 4.08494   9
  -3  13   0 2.95964 2.96211   8
   3  13   0-0.51430 2.98338   5
   3  13   1 128.938 8.39540  17
   3 -13   1 124.031 11.5853  11
  -3  13  -1 132.243 9.31779   8
   3 -13   2 117.231 11.2260  11
  -3 -13  -2 107.019 9.36396  10
  -3 -13  -3 3.74889 3.81039  10
   3 -13   3 5.54017 5.53896  11
  -3 -13  -4 240.729 14.9079  10
   3 -13   4 272.882 16.5609  11
  -3 -13  -5 0.83267 4.53925  10
   3 -13   5-5.34101 5.22168  11
   3 -13   6-1.75698 4.59664  11
  -3 -13  -6-5.18851 5.13040  10
   3 -13   7 40.9267 7.13947  11
  -3 -14   8 1.96769 3.22926  14
   3 -14  -8-1.89975 5.44349   9
   3  14  -8-4.64474 10.6048  18
  -3 -14   7 8.68158 3.63967  14
   3 -14  -7 4.67298 4.67685   9
  -3 -14   6 3.48391 3.08240  14
   3 -14  -6 4.63478 4.85035   9
   3  14  -6 4.27744 9.00453  18
  -3 -14   5 12.9533 3.58879  14
   3  14  -5 9.57122 9.05475  18
   3 -14  -5 15.6808 5.60289   9
   3  14  -4 114.035 9.96138  17
  -3 -14   4 158.116 9.21470  14
   3 -14  -4 120.215 12.3709  11
  -3  14   4 156.998 10.0920   8
   3 -14  -4 151.203 12.3430   9
   3  14  -4 144.630 9.55087   5
   3  14  -3 52.8842 6.78053  17
   3 -14  -3 43.9411 8.09517  11
   3 -14  -3 52.9193 7.85801   9
  -3  14   3 50.2896 6.15775   8
   3  14  -3 50.2282 6.03396   5
   3  14  -2 99.2689 8.23395  17
   3 -14  -2 77.1926 10.1771  11
  -3  14   2 82.2356 7.52616   8
   3  14  -2 72.2576 7.02210   5
   3  14  -1 209.750 11.7312  17
   3 -14  -1 184.410 14.9554  11
  -3 -14   1 191.452 12.8715   9
  -3  14   1 197.253 11.7192   8
   3  14  -1 186.846 10.9694   5
   3  14   0 5.27165 3.36152  17
   3  14   0-1.64824 3.18582   5
  -3 -14   0-3.91403 4.48606   9
  -3  14   0 0.62966 3.29404   8
   3 -14   0 5.21780 5.45930  11
   3  14   1 48.7851 5.80529   5
   3 -14   1 37.8525 7.70481  11
  -3 -14  -1 46.9436 7.14935   9
  -3  14  -1 36.1471 5.70395   8
   3 -14   2 9.93974 5.35283  11
   3 -14   3 31.0347 7.06578  11
  -3 -14  -3 30.0876 6.31389  10
  -3 -14  -4 19.2481 5.66365  10
   3 -14   4 23.6364 6.22553  11
  -3 -14  -5 9.66703 5.44075  10
   3 -14   5-0.92628 4.91553  11
  -3 -14  -6 90.4821 9.94232  10
   3 -14   6 86.2427 10.0730  11
   3 -15  -8 8.02803 5.40181   9
   3  15  -7 60.7945 13.1037  18
   3 -15  -7 75.4376 9.72799   9
  -3 -15   7 75.4577 7.27790  14
   3  15  -6 13.1842 10.1198  18
   3 -15  -6 18.7324 6.10708   9
  -3 -15   6 5.41231 3.28621  14
  -3 -15   5 44.8316 5.60260  14
   3 -15  -5 59.5039 9.54579  11
   3 -15  -5 37.3343 7.56863   9
   3  15  -4 104.296 9.52694  17
  -3 -15   4 87.0422 7.12157  14
   3 -15  -4 82.5727 10.8558  11
   3 -15  -4 78.5967 9.54380   9
  -3  15   4 90.0193 8.10499   8
   3  15  -4 102.753 8.30243   5
   3 -15  -3 226.145 17.2866  11
  -3  15   3 265.578 14.2066   8
   3  15  -3 252.867 13.7721   5
   3  15  -2 27.7668 5.54463  17
   3 -15  -2 27.2929 7.68579  11
  -3  15   2 20.7232 4.90216   8
   3  15  -2 24.7745 4.93989   5
   3  15  -1 4.75567 3.93816  17
   3  15  -1 5.32509 3.39591   5
  -3 -15   1 2.44869 4.73666   9
  -3  15   1 15.1094 4.35112   8
   3 -15  -1 11.2663 6.83248  11
   3  15   0 4.09057 3.61918   5
  -3 -15   0 3.34178 4.84587   9
  -3  15   0 5.33649 3.54124   8
   3 -15   0 5.51307 5.68652  11
   3  15   1 235.818 12.9680   5
  -3 -15  -1 240.002 15.5805   9
  -3  15  -1 267.049 14.3208   8
   3 -15   1 259.532 17.4989  11
   3 -15   2 43.7128 8.10308  11
   3  15   2 42.6166 5.65634   5
   3 -15   3-1.01044 4.72805  11
  -3 -15  -4 99.7573 10.2029  10
   3 -15   4 111.686 11.2708  11
  -3 -15  -5 64.3837 8.85429  10
   3 -15   5 70.5687 9.69327  11
   3 -15   5 84.0203 9.79230  14
   3 -16  -7 1.04852 5.24496   9
  -3 -16   7 0.65629 3.43337  14
   3 -16  -6 5.91585 6.01029  11
   3 -16  -6 3.12786 5.90351   9
  -3 -16   6-0.61859 3.14243  14
   3 -16  -5 45.2316 9.12386  11
   3 -16  -5 42.5763 7.59989   9
  -3 -16   5 41.6319 5.45518  14
   3  16  -4 14.6404 5.34115  17
   3 -16  -4 15.5502 6.62126  11
   3 -16  -4 15.6255 6.52939   9
  -3  16   4 21.2236 4.85766   8
   3  16  -3 108.599 9.97017  17
   3  16  -3 125.103 9.49660   5
  -3  16   3 125.637 9.81619   8
   3 -16  -3 119.062 13.1053  11
   3  16  -2 71.8849 7.37083   5
  -3  16   2 78.7471 7.87458   8
   3 -16  -2 82.8180 11.1124  11
   3  16  -1 272.006 14.2989   5
  -3  16   1 279.841 14.8955   8
   3 -16  -1 248.623 18.2612  11
   3  16   0 62.6579 6.86620   5
  -3 -16   0 56.1711 8.21909   9
  -3  16   0 75.3057 7.83519   8
   3 -16   0 63.5910 9.84796  11
   3  16   1 6.83177 3.61109   5
  -3 -16  -1 21.1371 6.40430   9
  -3  16  -1 10.7430 4.34991   8
   3 -16   1 7.86406 6.20961  11
   3  16   2 5.68510 3.74821   5
  -3 -16  -2-1.92193 5.16970   9
   3 -16   2 8.68858 5.76306  11
   3 -16   3 7.34392 5.94585  11
   3  16   3 11.0708 4.43072   5
   3 -16   4-1.01798 5.54950  11
   3 -16   4 8.57248 5.72353  14
  -3 -17   6-0.63388 3.36315  14
   3 -17  -5 12.0360 6.85115   9
   3  17  -5 14.9421 6.01927  17
   3  17  -4-1.57816 4.68108  17
   3 -17  -4 6.59332 6.37220   9
  -3  17   4 0.69724 3.94823   8
   3 -17  -4 10.0924 6.87698  11
   3  17  -3 89.4746 8.42785   5
  -3  17   3 81.4470 8.34818   8
   3 -17  -3 98.6509 12.5185  11
   3  17  -2 18.2771 4.62388   5
  -3  17   2 19.3682 5.13751   8
   3 -17  -2 17.6219 7.31512  11
   3  17  -1 11.3002 4.29230   5
  -3  17   1 15.2625 4.90594   8
   3 -17  -1 11.1354 7.09834  11
   3  17   0 5.24126 4.05916   5
  -3  17   0 8.09714 4.46590   8
   3 -17   0 7.23262 6.65906  11
   3  17   1 95.3765 8.55972   5
  -3 -17  -1 110.383 11.1457   9
  -3  17  -1 92.9744 8.92239   8
   3 -17   1 78.4862 11.0975  11
  -3 -17  -2 65.2687 9.32757   9
   3 -17   2 76.6879 10.7152  11
   3 -17   3 62.7534 8.48821  14
  -3  18   3 44.9937 6.78822   8
  -3  18   2 22.4255 5.64001   8
   4   0 -13-1.14443 9.16397   4
   4   0 -13 3.37621 6.92158  15
  -4   0  13-1.28672 2.90090  16
   4   0 -12 24.8739 8.94366   4
   4   0 -12 12.4078 6.14954  15
  -4   0  12 17.0860 3.98999  16
   4   0 -11 1.85809 6.87342   4
   4   0 -11 6.34586 5.25372  15
  -4   0  11-0.57236 2.77222  16
   4   0 -10 465.974 22.7413   4
  -4   0  10 492.505 19.4879  16
   4   0 -10 477.043 20.6999  15
   4   0  -9-7.26781 6.29707   4
   4   0  -9-0.56340 4.37195  15
  -4   0   9-1.47118 2.37569  16
   4   0  -8 56.1557 7.09846   7
   4   0  -8 39.4919 5.50444  15
   4   0  -8 39.3577 3.84872  14
  -4   0   8 39.9960 4.55263  16
   4   0  -8 35.2604 6.29171   4
   4   0  -8 46.9836 5.22405   3
   4   0  -8 29.1844 6.45661   2
  -4   0   7-1.63314 2.04271  16
   4   0  -7 0.86324 2.88181  15
   4   0  -7-2.81218 4.50231   7
   4   0  -7-3.13748 1.87092  14
   4   0  -7 0.72991 2.21281  13
   4   0  -7-0.79775 2.54375   3
   4   0  -7-1.92828 4.02171   2
   4   0  -6 637.186 21.9846  17
  -4   0   6 668.701 22.8235  16
   4   0  -6 631.877 22.6377  15
   4   0  -6 673.354 22.2337  13
   4   0  -6 689.245 21.3981  14
   4   0  -6 651.882 23.4532   2
   4   0  -6 703.708 22.9370   3
   4   0  -6 654.590 23.2816   7
   4   0  -5 1.97390 1.88265  17
   4   0  -5 2.83674 2.46900  15
  -4   0   5 0.65013 1.46580  16
   4   0  -5-0.59271 1.67808  13
   4   0  -5 0.28048 0.74882  12
   4   0  -5 0.68256 1.75977   3
   4   0  -5 1.49492 1.68521   1
  -4   0   5 0.74885 1.14707   6
   4   0  -4 1185.06 35.7161   1
  -4   0   4 1151.29 34.6301  16
   4   0  -4 1184.97 34.2873  17
   4   0  -4 1165.19 34.4967  13
   4   0  -4 1166.27 32.2683  12
   4   0  -4 1119.36 33.3477  11
  -4   0   4 1114.98 31.3476  10
   4   0  -4 1220.13 35.3201   3
  -4   0   4 1167.64 35.3654   3
  -4   0   3-1.18294 1.79282   1
   4   0  -3 0.35765 1.61262   1
  -4   0   3 0.24276 1.07333  16
   4   0  -3 0.14481 1.03237  12
  -4   0   3-0.82602 1.33357  13
  -4   0   3 0.17268 1.05792  12
   4   0  -3-0.73542 1.59293  17
  -4   0   3 0.82120 1.84342  17
   4   0  -3 1.15607 1.33071  11
   4   0  -3 0.63103 1.93297   3
  -4   0   3-0.32780 1.42005   3
   4   0  -2 537.892 19.2294   1
  -4   0   2 553.198 18.4275   1
   4   0  -2 528.935 17.6203  17
  -4   0   2 536.130 17.1116  16
  -4   0   2 535.778 17.9165  17
   4   0  -2 529.672 18.2660  18
  -4   0   2 563.910 18.0582  13
  -4   0   2 518.252 16.8832  12
  -4   0   2 534.890 17.6123  11
   4   0  -2 531.308 16.9187  11
  -4   0   2 528.561 18.5503   3
   4   0  -2 566.634 19.0618   3
  -4   0   1-0.32644 1.89289   1
   4   0  -1 3.66519 2.62166   1
  -4   0   1 0.79293 1.88432  17
  -4   0   1-0.66076 1.01202  16
  -4   0   1 0.21854 1.15948  12
   4   0  -1-0.66250 1.32444  11
  -4   0   1-0.58836 1.96397  11
  -4   0   1 0.35034 1.85879   3
   4   0  -1 1.08274 2.67017   3
   4   0   0 561.274 21.4610   1
  -4   0   0 614.031 20.7315   1
   4   0   0 567.480 21.0456   3
   4   0   0 606.661 19.1070  11
  -4   0   0 575.840 18.8650  12
  -4   0   0 574.677 18.4379  18
  -4   0   0 601.617 19.5435  17
  -4   0   0 579.041 19.8928  11
  -4   0   0 576.668 20.7280   3
  -4   0  -1 0.41340 2.85511   1
  -4   0  -1-0.60919 2.12087  17
  -4   0  -1-1.37516 1.57618  12
   4   0   1 0.30008 1.52437  11
  -4   0  -1-0.35858 2.41485  11
  -4   0  -1-0.45052 2.64258   3
  -4   0  -2 63.5990 4.59201  12
  -4   0  -2 62.6865 6.29700   3
  -4   0  -2 60.3233 5.37993  11
  -4   0  -2 64.1158 6.41769   1
  -4   0  -3 8.46460 4.66092   3
  -4   0  -3-1.00872 2.08132  12
  -4   0  -3 0.44675 2.73697  11
  -4   0  -3 4.36218 4.96424   1
  -4   0  -4 167.901 8.72574  12
  -4   0  -4 191.007 12.4241   3
  -4   0  -4 171.766 10.1597  11
  -4   0  -4 178.885 12.1540   1
  -4   0  -5 9.33471 6.52569   3
  -4   0  -5-1.19229 2.46006  12
   4   0   5 15.2209 10.3370   2
  -4   0  -6 88.3908 6.48069  12
   4   0   6 90.6177 12.5010   2
  -4   0  -7 0.91212 2.41971  12
   4   0   7-6.49888 9.72056   2
  -4   0  -8 101.869 7.42677  12
   4   0   8 81.9129 13.8522   2
   4   0   8 98.5483 14.5837   7
   4   0   9-2.36045 10.4369   2
   4   0   9-5.95690 10.2688   7
   4  -1 -13 7.98367 8.61710   4
   4   1 -13-4.59738 8.50344   4
   4  -1 -13 1.72690 6.99807  15
  -4   1  13 2.56113 3.20337  16
   4  -1 -12 24.8106 8.69834   4
   4   1 -12 31.2571 9.28363   4
   4  -1 -12 22.2851 6.78396  15
   4   1 -12 28.6595 6.99523  15
  -4   1  12 29.0879 4.83994  16
  -4  -1  12 21.5578 4.37512  16
   4  -1 -11 47.2622 9.24437   4
   4   1 -11 41.1049 9.05843   4
   4  -1 -11 37.5611 6.94067  15
   4   1 -11 28.8564 6.57987  15
  -4   1  11 29.6167 4.67975  16
  -4  -1  11 37.5775 5.06694  16
   4  -1 -10 48.4900 8.61109   4
   4   1 -10 62.1124 8.85902   4
  -4   1  10 52.1374 5.62760  16
   4  -1 -10 52.0363 7.05423  15
   4   1 -10 56.6582 7.12216  15
  -4  -1  10 42.4859 5.27255  16
   4  -1  -9 10.8744 6.35157   4
   4   1  -9 2.18493 5.97814   4
   4  -1  -9 12.1815 4.95352  15
   4   1  -9 7.65605 4.56949  15
  -4   1   9 11.3214 3.08889  16
  -4  -1   9 10.4230 3.11441  16
  -4  -1   8 220.381 10.8421  16
  -4   1   8 194.704 10.3657  16
   4  -1  -8 213.768 11.6537  15
   4   1  -8 194.127 11.0149  15
   4   1  -8 215.429 9.69179  14
   4  -1  -8 206.034 12.6356   4
   4   1  -8 205.942 12.6262   4
   4   1  -8 200.275 10.3172  13
   4   1  -8 231.264 11.3684   3
   4  -1  -8 222.193 11.0893   3
   4  -1  -8 212.636 12.4063   2
   4   1  -8 216.695 12.4539   2
   4  -1  -8 217.069 12.1419   7
   4   1  -8 188.980 12.0064   7
   4  -1  -7 61.1210 6.57129   2
   4   1  -7 61.1117 6.36500   2
  -4  -1   7 54.0377 4.94190  16
  -4   1   7 50.9352 4.71761  16
   4  -1  -7 54.8297 5.64975  15
   4   1  -7 54.8426 5.37866  15
   4   1  -7 56.0826 4.46686  14
   4  -1  -7 40.9842 5.93877   4
   4   1  -7 43.4831 5.88576   4
   4   1  -7 60.0612 4.97474  13
   4  -1  -7 49.2443 4.08818  14
   4   1  -7 61.0998 5.38562   3
   4  -1  -7 61.4847 5.52192   3
   4   1  -7 60.9694 6.65129   7
   4  -1  -7 52.8950 6.33385   7
  -4  -1   6 626.429 22.2744  16
  -4   1   6 648.582 22.3244  16
   4  -1  -6 620.057 21.0669  17
   4   1  -6 640.012 22.2430  15
   4  -1  -6 633.397 22.5794  15
   4   1  -6 663.674 21.1541  14
   4   1  -6 657.726 22.0073  13
   4  -1  -6 671.190 21.9035  13
   4   1  -6 645.072 23.0067   2
   4   1  -6 698.694 22.6134   3
   4  -1  -6 675.777 22.4423   3
   4  -1  -6 660.512 23.1182   2
   4  -1  -6 637.797 22.7341   7
   4   1  -6 653.246 23.0900   7
  -4  -1   5 31.1427 3.36332  16
  -4   1   5 32.7306 3.29985  16
   4   1  -5 35.4146 3.63537  17
   4  -1  -5 33.7561 3.16087  17
   4   1  -5 32.6641 3.14586  16
   4   1  -5 26.1979 3.55890  15
   4  -1  -5 33.6710 3.92994  15
   4   1  -5 30.1299 2.15089  12
   4  -1  -5 31.1029 3.31426  13
   4   1  -5 31.9253 3.45508  13
   4   1  -5 26.5846 3.39445   1
   4  -1  -5 35.0565 3.79111   1
  -4   1   5 28.8798 2.11442   6
   4   1  -5 30.7756 3.65764   3
   4  -1  -5 30.9923 3.56821   3
   4   1  -4 91.4316 5.78607   3
   4  -1  -4 88.5626 5.63758   3
  -4  -1   4 88.1243 5.80622   3
  -4   1   4 89.9622 5.73293   3
  -4   1   4 90.3792 5.37166  16
  -4  -1   4 80.2179 5.19679  16
   4   1  -4 97.5657 5.64342  17
   4   1  -4 92.6930 5.16332  16
   4  -1  -4 98.0970 5.07393  17
  -4  -1   4 96.0695 4.76176   6
   4   1  -4 97.2190 5.67706  13
   4  -1  -4 87.2501 5.14107  13
   4   1  -4 88.5538 4.11997  12
   4  -1  -4 94.5826 4.04936   8
   4   1  -4 85.8262 3.98394  11
   4  -1  -4 88.0436 5.38714  11
  -4   1   4 96.2064 4.01346  10
   4  -1  -4 89.9112 5.87785   1
   4   1  -4 86.6334 5.76538   1
   4   1  -3 403.512 14.8437   3
   4  -1  -3 408.413 14.8784   3
  -4  -1   3 417.852 15.0536   3
  -4   1   3 415.584 14.9441   3
   4   1  -3 400.320 15.2534   1
   4  -1  -3 402.173 15.2821   1
  -4  -1   3 401.996 14.6043   1
  -4   1   3 407.245 14.6894   1
   4   1  -3 382.977 13.5062  16
  -4   1   3 400.227 13.8749  16
  -4  -1   3 387.507 13.8999  16
  -4   1   3 401.076 14.0752  17
   4   1  -3 385.522 14.1891  17
   4   1  -3 390.252 16.0085  18
   4  -1  -3 415.113 13.7164  17
  -4   1   3 399.634 12.8170  12
   4  -1  -3 397.013 13.8773  13
  -4  -1   3 401.258 14.4412  13
   4   1  -3 412.338 12.8969  12
  -4   1   3 384.721 14.0382  13
   4  -1  -3 413.549 14.3314  11
   4   1  -3 393.588 12.1148  11
  -4   1   3 397.689 13.2666   9
  -4  -1   2 14.1167 2.72750   1
  -4   1   2 14.0551 2.59744   1
   4   1  -2 10.8990 2.67052   1
   4  -1  -2 14.6132 2.93716   1
  -4   1   2 17.3166 1.90623  12
  -4  -1   2 18.4006 2.51278  13
  -4   1   2 17.6752 2.32471  13
   4   1  -2 17.8670 1.97936  12
  -4  -1   2 16.6409 2.10001  12
  -4  -1   2 14.5953 2.62737  17
   4   1  -2 13.1679 3.35602  18
   4  -1  -2 19.2196 2.88230  18
  -4   1   2 18.0920 2.56695  17
   4   1  -2 13.9519 1.82002  16
  -4   1   2 15.8067 1.95061  16
   4   1  -2 14.8405 2.44551  17
  -4  -1   2 15.2564 2.29979  11
  -4   1   2 17.3388 2.79604  11
   4   1  -2 15.3635 1.64237  11
   4  -1  -2 15.9875 2.36946  11
  -4  -1   2 16.7036 2.82388   3
   4   1  -2 13.6095 2.86115   3
   4  -1  -2 15.2269 3.11191   3
  -4   1   2 15.3765 2.68400   3
  -4  -1   1 256.618 10.7867   1
  -4   1   1 241.945 10.6059   1
   4   1  -1 219.070 10.8831   1
   4  -1  -1 247.403 11.2515   1
   4   1  -1 254.370 8.73892  16
  -4   1   1 236.402 8.58875  16
  -4  -1   1 256.251 10.3435  17
  -4   1   1 232.031 9.66445  17
  -4  -1   1 252.620 9.63699  12
  -4   1   1 240.459 9.70727  13
   4   1  -1 263.435 8.97095  11
  -4   1   1 232.429 9.16084  12
   4   1  -1 248.994 9.26122  12
  -4  -1   1 260.068 9.92908  11
  -4   1   1 256.443 10.9625  11
   4  -1  -1 244.348 9.94765  11
  -4  -1   1 244.563 10.7682   3
  -4   1   1 242.536 10.6255   3
   4  -1  -1 253.205 11.1097   3
   4   1  -1 252.241 11.2168   3
   4   1   0 192.299 10.1771   1
   4  -1   0 168.425 9.81427   1
  -4  -1   0 165.206 8.80770   1
  -4   1   0 171.547 8.91077   1
   4   1   0 191.360 9.92893   3
   4  -1   0 175.831 9.60469   3
  -4  -1   0 186.748 7.94506  12
  -4   1   0 172.527 7.64816  12
   4  -1   0 176.353 8.18520  11
  -4   1   0 172.507 7.94611  17
   4   1   0 185.747 6.45519  16
  -4   1   0 176.647 6.32182  16
  -4  -1   0 179.844 8.27828  17
  -4  -1   0 182.500 8.57236  18
  -4   1   0 172.169 8.98827  11
  -4  -1   0 172.988 8.09187  11
  -4  -1   0 180.042 9.15348   3
  -4   1   0 173.076 9.06970   3
  -4  -1  -1 15.6989 3.55449   1
  -4   1  -1 11.1538 3.57298   1
  -4  -1  -1 12.4399 2.66885  17
   4   1   1 10.8327 1.18951  16
  -4  -1  -1 10.5320 2.17127  12
  -4   1  -1 13.1480 2.20035  12
   4  -1   1 13.9788 2.56628  11
  -4  -1  -1 8.98697 2.63370  11
  -4   1  -1 8.85600 3.11755  11
  -4  -1  -1 9.90468 3.22356   3
  -4   1  -1 11.2321 3.31365   3
  -4   1  -2 542.553 21.5572   3
  -4  -1  -2 567.478 21.8694   3
  -4  -1  -2 591.679 19.8770  17
  -4  -1  -2 567.733 19.3293  12
   4  -1   2 585.690 20.1580  11
  -4   1  -2 552.481 19.0350  12
  -4  -1  -2 547.587 19.8553  11
  -4   1  -2 574.125 20.9367  11
  -4  -1  -2 571.926 21.5324   1
  -4   1  -2 562.082 21.4364   1
  -4  -1  -3 91.9810 5.91603  12
  -4   1  -3 88.1878 5.75765  12
  -4  -1  -3 99.7695 8.63638   3
  -4   1  -3 92.8882 8.33132   3
  -4  -1  -3 87.9372 6.62888  11
  -4   1  -3 94.6935 7.23957  11
  -4  -1  -3 76.3464 8.14737   1
  -4   1  -3 93.1306 8.34872   1
  -4  -1  -4 491.784 17.9964  12
  -4   1  -4 482.089 17.8616  12
  -4  -1  -4 478.964 21.7531   3
  -4   1  -4 527.166 22.1504   3
  -4  -1  -4 487.805 19.2214  11
  -4   1  -4 513.897 20.1185  11
  -4  -1  -4 456.074 21.1452   1
  -4   1  -4 506.104 21.5850   1
  -4  -1  -5 59.2180 8.67340   3
  -4   1  -5 50.3678 8.37815   3
  -4  -1  -5 46.1510 4.90511  12
  -4   1  -5 45.5926 4.62943  12
   4  -1   5 68.5563 12.3262   2
   4   1   5 42.7467 11.3112   2
  -4  -1  -6 92.6742 6.69848  12
  -4   1  -6 107.087 7.08827  12
   4  -1   6 123.256 13.6806   2
   4   1   6 89.4604 12.4791   2
  -4  -1  -7-0.46439 2.56460  12
  -4   1  -7 2.71937 2.71831  12
   4   1   7-8.65200 9.22263   2
   4  -1   7 8.66038 10.0854   2
  -4   1  -8 35.9972 4.65319  12
  -4  -1  -8 33.5179 4.71327  12
   4  -1   8 49.0951 12.0932   7
   4   1   8 52.8308 12.3513   7
   4   1   8 37.4846 11.3608   2
   4  -1   8 34.1370 11.8171   2
  -4   1  -9 1.01023 2.75344  12
   4   1   9-1.17853 10.3692   2
   4  -1   9-5.89833 10.9902   2
   4  -1   9-6.00648 10.6227   7
   4   1   9-9.43681 10.3786   7
   4  -2 -13 67.3092 12.0830   4
   4   2 -13 83.1908 13.0603   4
  -4   2  13 61.8652 6.74114  16
   4  -2 -13 41.4802 9.00400  15
   4  -2 -12 14.4814 8.72868   4
   4   2 -12 5.23940 7.81136   4
  -4   2  12 9.11624 3.40718  16
   4  -2 -12 8.12646 6.26909  15
   4  -2 -11-0.92445 7.17420   4
   4   2 -11 5.62655 7.18233   4
   4  -2 -11 8.88578 5.63392  15
  -4   2  11 4.01401 2.82569  16
   4  -2 -10 231.009 15.3488   4
   4   2 -10 248.717 15.8862   4
   4  -2 -10 241.355 13.9551  15
   4   2 -10 268.874 13.9720  15
  -4   2  10 249.171 12.6176  16
  -4  -2  10 258.232 12.9785  16
   4   2  -9 19.6828 3.68159  14
   4  -2  -9 12.2904 6.54172   4
   4   2  -9 8.81515 6.18590   4
   4  -2  -9 16.7399 5.34018  15
   4   2  -9 22.7618 5.09158  15
  -4  -2   9 25.2731 4.08303  16
  -4   2   9 24.4556 3.83442  16
   4   2  -8-1.67783 5.85241   2
   4  -2  -8 1.65189 5.61610   2
  -4   2   8 3.20852 2.22205  16
   4  -2  -8 5.82496 4.02924  15
   4   2  -8 0.46257 3.86006  15
  -4  -2   8 6.96242 2.59763  16
   4  -2  -8 4.40514 4.88399   4
   4   2  -8 1.27907 4.86573   4
   4   2  -8 5.12302 2.56441  14
   4   2  -8 1.61518 2.42360  13
   4   2  -8 4.50026 2.92584   3
   4  -2  -8 3.08030 2.64085   3
   4  -2  -8 4.18969 5.26070   7
   4   2  -8 7.31885 5.63315   7
   4  -2  -7 2.41281 4.41398   2
   4   2  -7 1.47167 4.11526   2
  -4   2   7 0.83375 1.87967  16
   4   2  -7 0.67302 1.88200  16
  -4  -2   7-0.42351 1.94599  16
   4  -2  -7 1.40754 3.24035  15
   4   2  -7-2.00231 2.87687  15
   4  -2  -7 0.54061 4.30245   4
   4   2  -7-0.54854 4.20075   4
   4   2  -7 1.24894 1.95234  14
   4  -2  -7 0.51922 1.68697  14
   4   2  -7-0.37652 2.15773  13
   4  -2  -7 0.39306 2.35734   3
   4   2  -7 1.19546 2.31066   3
   4   2  -7 1.47607 4.35083   7
   4  -2  -7-1.81249 4.06650   7
   4  -2  -6 148.759 6.86493  17
  -4  -2   6 161.723 8.36806  16
  -4   2   6 154.712 8.17859  16
   4   2  -6 158.606 7.70637  16
   4   2  -6 151.317 8.04329  15
   4  -2  -6 153.142 8.78049  15
   4   2  -6 143.401 8.28831   1
   4   2  -6 145.167 7.91316  13
   4   2  -6 155.389 7.55441  14
   4  -2  -6 151.144 7.66695  13
   4  -2  -6 154.507 8.81847   7
   4   2  -6 153.433 9.16811   7
   4  -2  -6 152.686 8.99364   2
   4   2  -6 144.889 8.02472   3
   4  -2  -6 174.065 8.52538   3
   4   2  -6 146.117 8.91528   2
   4   2  -5 137.236 7.45471   3
   4  -2  -5 136.625 7.36518   3
   4   2  -5 126.758 7.38754   1
   4  -2  -5 124.295 7.17898   1
  -4   2   5 131.436 7.06467  16
   4   2  -5 127.115 6.66387  16
   4   2  -5 137.893 7.66740  17
  -4  -2   5 141.395 7.38594  16
   4  -2  -5 122.478 5.89452  17
   4   2  -5 137.499 7.12525  15
   4  -2  -5 116.361 7.30508  15
   4   2  -5 128.456 5.46189  12
   4   2  -5 132.182 7.16253  13
   4  -2  -5 134.618 6.67513  13
   4   2  -5 140.557 6.64675  14
  -4   2   5 121.984 5.17664  10
   4   2  -5 136.023 7.96204   7
   4   2  -4 765.194 24.4829   3
   4  -2  -4 807.337 24.6321   3
  -4  -2   4 743.612 24.4805   3
  -4   2   4 732.410 24.5332   3
   4   2  -4 764.222 23.5757  16
   4  -2  -4 763.750 22.6820  17
   4   2  -4 749.583 24.5700  17
  -4   2   4 770.452 24.1147  16
  -4  -2   4 753.655 23.2568   6
   4   2  -4 758.723 24.8806   1
   4  -2  -4 769.681 24.9893   1
   4   2  -4 788.343 22.4247  12
  -4   2   4 691.512 21.4960  12
   4   2  -4 776.370 24.2866  13
   4  -2  -4 763.999 23.4047  13
  -4  -2   4 786.841 24.7229  13
   4  -2  -4 725.966 24.3620  11
  -4   2   4 714.325 22.1224  10
   4  -2  -4 756.293 22.0735   8
   4   2  -3 1191.31 36.9638   3
  -4  -2   3 1255.92 37.4029   3
  -4   2   3 1219.35 37.0719   3
   4  -2  -3 1225.99 37.0706   3
   4   2  -3 1189.92 35.7302  16
  -4   2   3 1232.61 35.7809  17
   4   2  -3 1224.56 37.0114  17
   4   2  -3 1233.05 39.3613  18
  -4   2   3 1260.87 36.2191  16
  -4  -2   3 1218.28 35.9470   6
   4  -2  -3 1193.76 35.7088  13
   4   2  -3 1238.12 35.1135  12
  -4  -2   3 1253.92 37.1052  13
  -4   2   3 1207.26 34.6205  12
  -4   2   3 1248.11 36.0497  13
   4  -2  -3 1217.08 35.2086   8
  -4   2   3 1217.40 35.8342   9
   4  -2  -3 1212.16 37.3030  11
   4   2  -3 1234.91 37.6486   1
   4  -2  -3 1250.23 37.7181   1
  -4  -2   3 1304.74 37.0564   1
  -4   2   3 1251.27 36.9147   1
  -4  -2   2 945.805 27.6500   1
  -4   2   2 892.361 27.4807   1
   4   2  -2 868.964 28.2819   1
   4  -2  -2 858.703 28.2953   1
   4   2  -2 868.742 25.9516  16
  -4  -2   2 907.843 27.8541  17
  -4   2   2 904.140 26.1889  16
  -4   2   2 830.383 26.1616  17
   4   2  -2 875.819 27.3773  17
   4   2  -2 871.528 29.1105  18
  -4  -2   2 862.589 27.4187  13
  -4   2   2 853.562 26.2409  13
   4   2  -2 862.228 25.8696  12
  -4   2   2 840.549 25.6302  12
   4  -2  -2 869.847 27.7821  11
  -4  -2   2 868.962 25.3929  11
  -4   2   2 849.313 27.5406   3
  -4  -2   2 907.809 27.8400   3
   4  -2  -2 869.874 27.8661   3
   4   2  -2 890.164 27.9530   3
   4   2  -1 10.2769 2.88895   1
   4  -2  -1 8.17422 2.75635   1
  -4  -2   1 3.58068 2.21586   1
  -4   2   1 6.48081 2.46929   1
  -4  -2   1 5.27633 2.25130  17
  -4   2   1 5.56238 1.16664  16
  -4   2   1 3.26270 1.75481  17
   4   2  -1 6.26550 2.16453  17
  -4  -2   1 4.71057 3.12650  18
   4   2  -1 4.53388 1.19698  16
  -4   2   1 5.13129 1.48392  12
  -4   2   1 8.04315 1.82350  13
   4   2  -1 5.45218 1.46747  12
  -4  -2   1 5.20383 1.63354  12
  -4   2   1 9.68372 2.95015  11
  -4  -2   1 7.52708 1.91792  11
   4  -2  -1 4.10436 2.07869  11
  -4   2   1 6.95497 2.15755   3
  -4  -2   1 6.98810 2.25413   3
   4   2  -1 3.27842 2.71815   3
   4  -2  -1 2.53527 2.62561   3
   4   2   0 852.284 29.0962   1
   4  -2   0 849.979 29.1996   1
  -4  -2   0 876.424 27.9391   1
  -4   2   0 847.938 27.8545   1
   4   2   0 870.046 28.6162   3
   4  -2   0 823.006 28.2846   3
  -4  -2   0 855.660 26.7062  12
   4   2   0 862.346 26.0106  12
  -4   2   0 852.886 26.1635  12
  -4   2   0 848.896 24.3505  16
   4   2   0 854.986 24.7388  16
  -4  -2   0 907.953 27.3018  17
  -4  -2   0 872.682 27.9895  18
  -4   2   0 833.716 28.4289  11
   4  -2   0 864.964 27.5659  11
  -4  -2   0 847.615 26.1498  11
  -4   2   0 814.105 27.9018   3
  -4  -2   0 851.133 28.0356   3
  -4  -2  -1 19.3661 3.68194   1
  -4   2  -1 14.8085 3.65774   1
  -4  -2  -1 16.1853 2.44580  12
   4   2   1 19.9655 2.45794  12
  -4   2  -1 12.8646 2.39028  12
  -4  -2  -1 16.3653 3.98640  18
  -4  -2  -1 17.1663 3.10863  17
  -4   2  -1 12.7586 1.12090  16
   4   2   1 16.5096 1.53553  16
   4  -2   1 15.1937 2.83644  11
  -4  -2  -1 15.2092 2.67804  11
  -4   2  -1 11.3421 3.51850  11
  -4  -2  -1 17.4815 3.63155   3
  -4   2  -1 6.26389 2.90592   3
  -4  -2  -2 72.3937 6.68858   1
  -4   2  -2 62.8530 6.27666   1
  -4  -2  -2 72.2906 5.05717  12
   4  -2   2 67.0985 5.44066  11
  -4   2  -2 71.6006 4.91022  12
  -4  -2  -2 62.0703 5.07937  11
  -4  -2  -2 80.1891 5.62768  17
  -4   2  -2 63.0238 6.17829  11
  -4  -2  -2 69.7523 6.64097   3
  -4   2  -2 83.6605 7.04707   3
  -4  -2  -3 44.5440 6.53896   1
  -4   2  -3 47.6154 6.77231   1
  -4  -2  -3 36.0026 4.30726  17
  -4  -2  -3 36.6765 3.99564  12
  -4   2  -3 36.5670 3.86868  12
   4  -2   3 41.3997 4.64524  11
  -4  -2  -3 31.3704 4.22918  11
  -4   2  -3 33.6603 5.15523  11
  -4  -2  -3 42.2187 6.27638   3
  -4   2  -3 42.6388 6.36204   3
   4   2   4 203.928 12.7250  15
  -4  -2  -4 211.856 10.1671  12
  -4  -2  -4 196.565 10.6220  11
  -4   2  -4 210.364 9.91303  12
  -4  -2  -4 195.015 12.8174   3
  -4   2  -4 218.060 13.2951   3
  -4   2  -4 206.319 11.7972  11
  -4  -2  -4 223.387 13.2784   1
  -4   2  -4 214.540 13.2468   1
  -4  -2  -5 14.7873 6.91783   3
  -4   2  -5 7.70162 6.39017   3
  -4   2  -5 3.98997 2.39701  12
  -4  -2  -5 3.32584 2.65460  12
   4  -2   5 16.1838 10.2074   2
   4   2   5 22.7420 11.1487   2
  -4  -2  -6 94.7984 6.84147  12
  -4   2  -6 95.1369 6.65109  12
   4  -2   6 95.6454 12.7206   2
   4   2   6 101.361 12.8626   2
  -4  -2  -7 128.893 8.26017  12
  -4   2  -7 117.780 7.83682  12
   4  -2   7 117.911 14.3311   7
   4   2   7 120.721 14.2472   2
   4  -2   7 121.071 14.5085   2
  -4  -2  -8 151.756 9.41852  12
  -4   2  -8 140.240 8.76867  12
   4  -2   8 150.580 16.0241   7
   4   2   8 152.069 15.6197   7
   4   2   8 134.797 15.3657   2
   4  -2   8 125.042 15.4493   2
  -4   2  -9 9.05318 3.39437  12
   4  -2   9 2.35506 10.4149   2
   4   2   9 4.69283 10.6328   2
   4  -2   9 9.69009 10.6055   7
   4   2   9 10.4816 9.82656   7
   4  -3 -13 36.5416 10.6695   4
   4   3 -13 47.6431 11.0967   4
   4  -3 -13 28.6954 7.89165  15
  -4   3  13 26.9872 4.95463  16
   4  -3 -12 19.6878 8.25471   4
   4   3 -12 7.37488 7.96830   4
   4  -3 -12 14.1119 6.45166  15
  -4   3  12 14.1128 3.73791  16
   4  -3 -11 268.923 17.8266   4
   4   3 -11 276.807 17.8328   4
   4  -3 -11 264.922 15.8887  15
  -4   3  11 296.107 14.2637  16
   4  -3 -10 53.6475 8.44178   4
   4   3 -10 62.1698 9.26870   4
   4  -3 -10 51.5453 7.20277  15
  -4   3  10 52.3444 5.53290  16
   4  -3  -9 23.9635 6.65433   4
   4   3  -9 33.2799 7.29120   4
   4  -3  -9 35.1983 6.13682  15
   4   3  -9 43.8676 5.80874  15
  -4   3   9 43.6290 4.80860  16
  -4   3   8 779.661 26.5721  16
   4  -3  -8 737.689 27.2525  15
   4   3  -8 737.266 26.0870  15
   4   3  -8 762.394 24.9442  14
   4  -3  -8 741.354 28.2788   4
   4   3  -8 711.815 28.2158   4
   4   3  -8 815.693 26.8946   3
   4  -3  -8 744.231 26.0597   3
   4  -3  -8 746.068 27.5547   2
   4   3  -8 751.429 27.8090   2
   4  -3  -8 750.267 27.3582   7
  -4   3   7 63.8065 5.46471  16
   4   3  -7 65.7982 4.95982  16
   4  -3  -7 65.1053 6.24336  15
   4   3  -7 69.0242 5.68996  15
   4   3  -7 78.0867 5.39143  14
   4   3  -7 63.2927 7.31894   4
   4  -3  -7 57.6265 6.58815   4
   4   3  -7 64.8129 5.47616  13
   4  -3  -7 83.1653 7.35215   2
   4   3  -7 67.5085 7.15305   2
   4   3  -7 66.7758 5.64377   3
   4  -3  -7 72.6546 5.76694   3
   4   3  -7 64.7844 6.97575   7
   4  -3  -7 64.5697 6.60281   7
   4   3  -6 75.3235 5.16487  16
  -4   3   6 72.0422 5.46619  16
   4   3  -6 77.6506 5.64518  15
   4  -3  -6 77.1217 6.39202  15
   4   3  -6 70.6385 4.95714  14
   4   3  -6 76.2703 5.91669   1
   4  -3  -6 74.9586 5.77545   1
   4   3  -6 75.2785 5.62429  13
   4  -3  -6 78.9386 5.23482  13
   4  -3  -6 66.6669 6.13419   7
   4   3  -6 72.7497 6.69074   7
   4   3  -6 73.1258 6.49446   2
   4   3  -6 75.4359 5.71894   3
   4  -3  -6 68.3899 5.38163   3
   4  -3  -6 80.1981 6.75665   2
   4   3  -5 95.9600 6.06728   3
   4  -3  -5 91.6368 5.97884   3
   4   3  -5 92.7259 6.09651   1
   4  -3  -5 89.8864 6.06872   1
   4   3  -5 80.3375 5.20450  16
   4   3  -5 85.2604 6.33825  17
  -4   3   5 95.6979 5.93792  16
   4  -3  -5 87.1876 4.31789  17
   4   3  -5 88.6525 5.61764  15
   4  -3  -5 104.722 6.88443  15
  -4   3   5 80.9347 3.35073  12
   4   3  -5 84.7205 5.73340  13
   4  -3  -5 87.6809 5.14649  13
   4   3  -5 91.0111 5.39984  14
  -4   3   5 89.7950 4.57639  10
   4   3  -5 100.437 6.79673   7
   4   3  -4 9.75607 2.31209   1
   4  -3  -4 10.0193 2.35450   1
   4   3  -4 11.6635 4.54567  18
   4   3  -4 5.91355 2.64194  17
   4   3  -4 7.55682 1.85339  16
  -4  -3   4 9.25122 2.29461   6
   4   3  -4 10.8625 2.12789  14
   4   3  -4 8.41146 2.40120  13
  -4   3   4 7.28214 1.21429  12
   4  -3  -4 6.53179 1.81376  13
  -4  -3   4 9.77075 2.39790  13
   4   3  -4 6.93419 1.71407  12
   4  -3  -4 6.28347 2.71905  11
  -4   3   4 5.39788 1.72312  10
   4   3  -4 6.42154 2.07588   3
   4  -3  -4 5.08596 1.97697   3
  -4  -3   4 6.64598 2.10724   3
  -4   3   4 4.65399 1.79837   3
   4   3  -3 8.96286 2.22485   3
  -4  -3   3 10.6416 2.24112   3
  -4   3   3 7.43815 1.99699   3
   4  -3  -3 10.1590 2.58505   3
   4   3  -3 12.3469 2.64033   1
   4  -3  -3 10.4348 2.30802   1
  -4   3   3 11.5632 2.05119  17
   4   3  -3 9.64082 4.14283  18
   4   3  -3 8.59124 2.48136  17
   4   3  -3 8.48304 1.77347  16
  -4  -3   3 7.38639 2.23271   6
  -4   3   3 10.6763 1.51651  12
   4   3  -3 8.59601 1.66768  12
   4  -3  -3 10.2999 1.89204  13
  -4  -3   3 10.9083 2.27792  13
   4  -3  -3 10.2244 2.74179  11
  -4  -3   3 7.49944 1.20090  10
  -4   3   3 11.1879 2.52007   9
   4  -3  -3 10.7576 1.84740   8
  -4  -3   2 2.28322 1.73240   3
  -4   3   2 1.95226 1.65477   3
   4   3  -2 1.34750 2.47573   3
   4  -3  -2 0.33381 2.78588   3
   4   3  -2 6.58302 3.63868  18
   4   3  -2 0.97861 1.93664  17
  -4   3   2 2.82836 1.58984  17
  -4  -3   2 2.44491 2.37368  17
   4   3  -2 2.54543 1.31543  16
   4   3  -2 3.35674 1.37815  12
  -4  -3   2 3.95502 1.79835  13
  -4   3   2 3.62310 1.32242  13
  -4   3   2 2.93671 2.36314   9
   4  -3  -2 6.33602 1.88078   8
  -4  -3   2 3.10431 1.28257  11
   4  -3  -2 4.54325 2.55781  11
  -4   3   2 4.15634 1.94857   1
  -4  -3   2 2.68038 1.66751   1
   4   3  -2 1.14504 2.05454   1
   4  -3  -2 6.05214 2.50432   1
  -4  -3   1 353.085 13.1246   1
  -4   3   1 322.002 12.7306   1
   4   3  -1 331.712 13.9031   1
   4  -3  -1 322.823 13.7655   1
   4   3  -1 320.972 11.2510  16
  -4  -3   1 335.395 13.1670  17
  -4   3   1 334.022 11.7480  17
  -4  -3   1 323.223 14.1977  18
   4   3  -1 323.526 12.7008  17
  -4   3   1 303.942 11.2458  13
   4   3  -1 336.703 11.7282  12
   4  -3  -1 309.220 13.3915  11
  -4   3   1 320.847 13.9558  11
  -4  -3   1 319.576 10.9290  11
  -4  -3   1 331.843 13.1096   3
  -4   3   1 314.312 12.8590   3
   4   3  -1 328.574 13.4383   3
   4  -3  -1 328.525 13.4257   3
   4   3   0 420.297 17.0472   1
   4  -3   0 418.781 16.9558   1
  -4  -3   0 419.087 15.8208   1
  -4   3   0 429.050 15.8635   1
   4   3   0 392.947 16.4018   3
   4  -3   0 453.008 16.7786   3
   4   3   0 402.140 14.1366  12
  -4  -3   0 404.734 13.9235  11
  -4  -3   0 398.660 14.8374  12
  -4  -3   0 394.795 15.2668  17
  -4  -3   0 424.348 16.9946  18
  -4   3   0 410.505 16.9102  11
   4  -3   0 394.441 15.9601  11
  -4  -3   0 396.653 15.7791   3
  -4   3   0 419.253 15.9539   3
  -4  -3  -1 582.026 20.6778   1
  -4   3  -1 566.683 20.4607   1
  -4  -3  -1 562.451 19.4377  12
   4   3   1 586.900 18.5630  12
  -4  -3  -1 570.116 18.7883  11
  -4  -3  -1 573.195 21.1191  18
  -4  -3  -1 587.492 19.7631  17
  -4   3  -1 533.935 16.1336  16
  -4   3  -1 578.838 21.6369  11
   4  -3   1 548.505 20.3877  11
  -4   3  -1 574.420 20.8060   3
  -4  -3  -1 549.046 20.7648   3
  -4  -3  -2 465.056 18.4132   1
  -4   3  -2 451.790 18.3153   1
  -4  -3  -2 440.455 16.6389  12
   4  -3   2 446.135 17.6798  11
  -4  -3  -2 463.166 16.5667  11
   4   3   2 455.987 15.8905  12
  -4  -3  -2 466.217 16.8986  17
  -4   3  -2 425.077 18.4471  11
  -4   3  -2 495.589 19.1495   3
  -4  -3  -2 423.399 18.3571   3
  -4  -3  -3 0.54112 4.76097   1
  -4   3  -3 6.43104 5.19129   1
  -4  -3  -3-1.50260 2.67809  17
  -4  -3  -3-0.75860 2.34784  12
   4  -3   3-0.48688 2.54706  11
  -4  -3  -3 0.37900 2.53021  11
  -4   3  -3-0.56156 3.47597  11
  -4  -3  -3 4.80652 4.53928   3
  -4   3  -3-1.78744 3.94267   3
  -4  -3  -4 116.758 7.69304  17
   4   3   4 136.041 10.4079  15
  -4  -3  -4 117.009 7.54091  12
   4  -3   4 123.964 8.48469  11
  -4  -3  -4 126.138 7.96329  11
  -4  -3  -4 129.789 10.7728   3
  -4   3  -4 124.196 10.1564   3
  -4   3  -4 122.090 9.42656  11
  -4  -3  -4 127.826 10.8465   1
  -4   3  -4 120.786 10.2188   1
  -4  -3  -5 52.7715 8.67712   3
  -4   3  -5 54.9424 8.48221   3
   4  -3   5 45.6281 11.1384   2
   4   3   5 47.1077 11.2897   2
  -4  -3  -5 55.5316 5.23797  12
  -4   3  -5 47.5440 4.90270  12
  -4  -3  -6 15.5628 6.44379   3
  -4   3  -6 15.3009 6.51134   3
  -4  -3  -6 2.77616 2.55926  12
  -4   3  -6 4.75707 2.56943  12
   4  -3   6-1.01675 8.71810   2
   4   3   6 20.1843 9.81771   2
  -4   3  -7 2.28496 2.77211  12
  -4  -3  -7 2.47077 2.90014  12
   4  -3   7 22.8215 10.2905   7
   4   3   7 23.5918 11.0181   2
   4  -3   7 2.16008 9.69317   2
  -4  -3  -8 2.08997 2.99426  12
  -4   3  -8-1.92622 2.65928  12
   4  -3   8 5.91592 10.5147   7
   4   3   8 1.11723 10.1233   7
   4   3   8-5.62565 10.9892   2
   4  -3   8 2.26614 9.81698   2
  -4   3  -9 41.8540 5.14726  12
   4   3   9 22.1368 11.2851   2
   4  -3   9 23.4627 11.3149   2
   4  -3   9 36.5073 11.3321   7
   4   3   9 61.9330 12.7486   7
   4  -4 -13 55.0015 11.5273   4
   4   4 -13 40.8538 10.6954   4
  -4   4  13 46.7402 5.78152  16
   4  -4 -13 41.1655 9.19591  15
   4  -4 -12 114.203 13.4450   4
   4   4 -12 133.464 14.0156   4
  -4   4  12 142.075 9.73582  16
   4  -4 -12 129.922 12.1458  15
   4  -4 -11 37.1841 8.55428   4
   4   4 -11 38.9161 9.16521   4
  -4   4  11 35.4776 5.10151  16
   4  -4 -11 31.9105 7.14718  15
   4  -4 -10 30.6515 7.47241   4
   4   4 -10 16.9492 6.78621   4
  -4   4  10 35.5962 4.82727  16
   4  -4 -10 24.7498 6.14083  15
   4  -4  -9 46.6509 7.75442   4
   4   4  -9 32.1250 7.07221   4
   4  -4  -9 47.2646 6.86077  15
  -4   4   9 38.4854 4.72069  16
   4  -4  -8 2.78497 5.68770   2
   4   4  -8 11.9590 5.85826   2
  -4   4   8 7.23723 2.90838  16
   4  -4  -8 9.72608 5.11781  15
   4   4  -8 14.5712 4.33078  15
   4  -4  -8 10.8328 5.29400   4
   4   4  -8 8.49874 5.14650   4
   4   4  -8 14.1952 3.49247  14
   4   4  -8 12.3060 3.61591   3
   4  -4  -8 13.2560 3.59910   3
   4  -4  -8 15.4469 5.35664   7
   4  -4  -7 58.8649 6.59137   2
   4   4  -7 56.2899 6.76032   2
   4   4  -7 56.5697 4.67635  16
  -4   4   7 53.0267 4.96478  16
   4  -4  -7 60.9268 6.15805  15
   4   4  -7 55.1399 5.18608  15
   4   4  -7 47.9351 4.56549  14
   4  -4  -7 48.2219 6.46006   4
   4   4  -7 54.5608 6.71551   4
   4   4  -7 57.2665 5.28357  13
   4   4  -7 55.6881 5.10685   3
   4  -4  -7 52.0130 4.91935   3
   4  -4  -7 47.1699 5.91886   7
   4   4  -7 62.9155 7.14826   7
   4   4  -6 762.609 24.8460  16
   4   4  -6 763.917 24.8847  15
   4  -4  -6 719.167 26.4050  15
   4   4  -6 771.998 24.7866  14
   4   4  -6 796.287 26.2346   1
   4  -4  -6 756.637 25.8661   1
   4   4  -6 762.990 25.5683  13
   4  -4  -6 702.364 25.3546   7
   4   4  -6 782.950 26.9339   7
   4   4  -6 825.251 25.8191   3
   4  -4  -6 821.188 25.6489   3
   4  -4  -6 756.737 26.3367   2
   4   4  -6 778.783 26.4815   2
   4   4  -5 37.9015 4.12682   3
   4  -4  -5 29.0663 3.67035   3
   4   4  -5 36.6931 4.05495   1
   4  -4  -5 27.2576 3.49559   1
   4   4  -5 28.4952 4.49891  17
   4   4  -5 27.6402 3.42687  16
   4   4  -5 41.3074 3.78465  14
   4   4  -5 27.4269 3.45178  15
   4  -4  -5 24.2077 4.21853  15
   4   4  -5 36.4315 4.30743  13
   4  -4  -5 25.4466 2.86088  13
  -4   4   5 19.0855 2.66337  10
   4  -4  -5 20.6719 3.25755   9
   4   4  -5 35.1431 4.78353   7
   4   4  -4 952.302 31.4161  17
   4   4  -4 964.266 29.7438  16
   4   4  -4 962.893 34.7898  18
   4  -4  -4 1008.55 28.6561   5
  -4  -4   4 948.684 30.3014   6
   4   4  -4 978.720 30.9603   1
   4  -4  -4 989.883 30.9843   1
   4   4  -4 1005.86 30.8200  13
   4  -4  -4 941.428 28.8243  13
  -4  -4   4 1005.67 31.0927  13
   4   4  -4 946.767 29.5609  14
   4  -4  -4 943.034 31.9149  11
  -4   4   4 921.131 29.2316  10
   4   4  -4 999.164 30.6103   3
   4  -4  -4 991.123 30.5266   3
  -4  -4   4 1045.14 30.8830   3
  -4   4   4 1003.92 30.7404   3
  -4  -4   3 1834.88 50.2799   3
  -4   4   3 1749.06 50.0351   3
   4  -4  -3 1695.54 49.9497   3
   4   4  -3 1820.32 50.3292   3
   4   4  -3 1695.09 49.0770  16
   4   4  -3 1658.71 53.9904  18
   4   4  -3 1704.50 50.6781  17
  -4   4   3 1636.44 47.7006  17
  -4  -4   3 1694.77 49.9546   6
   4   4  -3 1746.94 50.7565   1
   4  -4  -3 1771.26 50.6905   1
   4   4  -3 1761.67 48.7300  12
  -4  -4   3 1745.74 50.5116  13
   4  -4  -3 1642.83 51.7575  11
  -4  -4   3 1646.00 47.1461  10
  -4   4   3 1706.00 49.7986   9
   4  -4  -3 1711.12 48.6858   8
   4   4  -2 283.937 11.7697   3
  -4  -4   2 280.690 11.4358   3
   4  -4  -2 278.095 11.6083   3
  -4   4   2 270.927 11.2879   3
   4   4  -2 267.978 13.8419  18
   4   4  -2 281.925 10.4868  16
   4   4  -2 278.809 11.6478  17
  -4   4   2 265.797 9.73911  17
  -4  -4   2 257.249 11.0536   6
   4   4  -2 292.899 10.5046  12
  -4  -4   2 265.759 11.4408  13
  -4   4   2 267.859 9.63479  13
   4  -4  -2 271.727 10.6230   8
  -4   4   2 275.011 11.7373   9
   4  -4  -2 278.118 12.9335  11
  -4  -4   2 267.478 9.41363  10
  -4  -4   2 263.940 8.58358  11
  -4   4   2 274.855 11.0742   1
   4  -4  -2 260.969 11.7241   1
  -4  -4   2 290.256 11.2613   1
   4   4  -2 288.465 12.1726   1
  -4  -4   1 1240.65 36.9700   3
   4  -4  -1 1157.29 36.9926   3
  -4   4   1 1189.31 36.7200   3
   4   4  -1 1255.68 37.5128   3
  -4  -4   1 1229.69 37.3631  17
  -4  -4   1 1221.73 39.1142  18
   4   4  -1 1224.94 36.8544  17
  -4  -4   1 1226.29 36.6306   1
  -4   4   1 1173.32 36.3664   1
   4   4  -1 1202.79 37.8839   1
   4  -4  -1 1164.74 37.6102   1
   4   4  -1 1223.35 35.4504  12
  -4   4   1 1167.78 34.4201  13
  -4  -4   1 1208.85 34.1852  11
   4  -4  -1 1141.07 38.3230  11
  -4   4   1 1214.07 38.5729  11
   4  -4  -1 1259.02 36.2150   8
  -4  -4   0 481.023 18.3289   3
  -4   4   0 489.717 18.3102   3
   4   4   0 525.241 18.2279  17
  -4  -4   0 526.163 18.4243  17
  -4  -4   0 551.739 20.6019  18
   4   4   0 537.000 19.3553   3
   4  -4   0 493.500 18.9679   3
   4   4   0 508.494 16.9552  12
  -4  -4   0 511.466 16.4248  11
   4  -4   0 538.460 18.0299   8
  -4   4   0 475.587 19.7627  11
   4  -4   0 481.646 19.2759  11
  -4  -4   0 503.906 18.2537   1
  -4   4   0 481.854 18.0549   1
   4   4   0 502.230 19.5802   1
   4  -4   0 488.657 19.4996   1
  -4  -4  -1 35.8672 4.47918   1
  -4   4  -1 25.8730 4.13082   1
   4   4   1 26.1701 2.98108  12
  -4  -4  -1 28.5893 5.71774  18
  -4  -4  -1 28.8616 3.82401  17
  -4  -4  -1 27.4249 3.07378  11
   4  -4   1 34.6970 4.51363  11
  -4   4  -1 26.1501 4.80520  11
  -4  -4  -1 26.9589 4.22334   3
  -4   4  -1 33.2919 4.58089   3
  -4  -4  -2 7.44823 3.66544   1
  -4   4  -2 14.3192 4.23086   1
   4   4   2 8.51672 2.39181  12
  -4  -4  -2 7.88439 2.38125  12
  -4  -4  -2 8.49474 2.92952  17
  -4  -4  -2 7.61686 2.42429  11
   4  -4   2 12.0784 3.42547  11
  -4   4  -2 6.96924 4.04981  11
  -4  -4  -2 4.10865 3.46575   3
  -4   4  -2 9.15924 3.85082   3
  -4  -4  -3 10.7269 5.19929   1
  -4   4  -3 11.6331 5.23155   1
  -4  -4  -3 8.10368 3.55182  17
   4   4   3 12.4299 2.71489  12
  -4  -4  -3 8.41316 2.77411  12
  -4  -4  -3 2.58218 2.59680  11
   4  -4   3 3.16956 3.06968  11
  -4   4  -3 2.44088 4.21917  11
  -4  -4  -3 12.5411 5.20488   3
  -4   4  -3 13.5396 4.71806   3
  -4  -4  -4 131.115 8.00478  17
   4   4   4 122.538 10.3139  15
  -4  -4  -4 118.235 7.69626  12
   4  -4   4 121.838 8.83527  11
  -4  -4  -4 118.895 7.82164  11
  -4  -4  -4 134.341 10.6673   1
  -4   4  -4 152.804 10.9489   1
  -4   4  -4 130.404 10.0235  11
  -4  -4  -4 134.063 10.7084   3
  -4   4  -4 146.947 11.1901   3
   4  -4   5 40.8133 10.8082   2
   4   4   5 67.3536 11.4297   2
  -4  -4  -5 49.0722 5.30537  12
   4  -4   5 52.0649 6.21933  11
  -4  -4  -5 58.6514 8.36575   3
  -4   4  -5 63.3903 8.68734   3
  -4  -4  -6 86.1427 6.78004  12
   4   4   6 82.1870 12.2868   2
   4  -4   6 68.0934 11.5447   2
  -4  -4  -6 83.4373 9.81189   3
  -4   4  -6 89.7852 10.0329   3
  -4  -4  -7 418.278 17.8840  12
  -4   4  -7 441.973 17.5991  12
   4   4   7 450.139 24.9690   2
   4  -4   7 452.019 25.2376   2
   4  -4   7 492.263 26.4044   7
   4   4   8 62.3535 12.7430   2
   4  -4   8 74.4102 12.9380   2
   4  -4   8 62.9320 12.9485   7
   4   4   8 83.3974 13.4317   7
  -4  -4  -8 69.2331 6.56462  12
  -4   4  -8 69.7338 6.23795  12
   4   4   9 92.1387 13.6681   2
   4  -4   9 81.6498 13.8749   2
  -4   4  -9 104.762 7.79345  12
   4  -4   9 67.2472 13.4354   7
   4   4   9 111.501 14.4458   7
   4  -5 -13 8.05118 9.09715   4
   4   5 -13-1.16898 9.12965   4
  -4   5  13 2.63777 3.08649  16
   4  -5 -12 28.1473 9.49284   4
   4   5 -12 36.0621 9.88168   4
   4  -5 -12 38.1847 8.21163  15
  -4   5  12 36.7427 5.30901  16
   4  -5 -11 8.40432 7.34180   4
   4   5 -11 4.76209 6.94749   4
   4  -5 -11 7.98401 6.31751  15
  -4   5  11 7.23685 3.54241  16
   4  -5 -10 76.6017 9.63037   4
   4   5 -10 65.5283 9.45393   4
   4  -5 -10 65.5707 8.01949  15
  -4   5  10 68.9281 6.45091  16
   4  -5  -9 56.4397 8.21286   4
   4   5  -9 60.8701 8.43799   4
   4  -5  -9 61.4843 7.34984  15
  -4   5   9 68.4564 6.22601  16
  -4   5   8 450.400 17.8219  16
   4  -5  -8 423.989 19.0991  15
   4  -5  -8 435.879 19.6405   4
   4   5  -8 388.575 19.2258   4
   4   5  -8 418.176 17.1260   3
   4  -5  -8 450.909 17.2276   3
   4  -5  -8 448.951 19.1784   2
   4   5  -8 442.273 19.3431   2
   4  -5  -8 443.039 18.4674   7
   4  -5  -7 20.8184 5.71082   2
   4   5  -7 20.8473 5.64492   2
   4   5  -7 33.8263 3.89898  16
   4  -5  -7 38.0182 5.42694  15
   4  -5  -7 12.7422 5.02490   4
   4   5  -7 29.6279 5.72432   4
   4   5  -7 31.5199 4.00987  14
   4   5  -7 24.9825 3.92224  13
   4   5  -7 25.8249 3.95151   3
   4  -5  -7 31.9614 4.12245   3
   4  -5  -7 32.7742 5.21711   7
   4   5  -7 19.7427 5.61028   7
   4   5  -6 182.970 8.96278  16
   4   5  -6 197.916 8.97090  15
   4  -5  -6 186.684 10.3646  15
   4   5  -6 191.272 9.00392  14
   4   5  -6 186.563 9.65672   1
   4  -5  -6 186.873 9.58758   1
   4   5  -6 199.200 9.76934  13
   4  -5  -6 166.846 9.43739   7
   4   5  -6 207.052 10.9794   7
   4  -5  -6 173.286 9.42067   9
   4  -5  -6 185.675 10.2603   2
   4   5  -6 201.242 10.5853   2
   4   5  -6 202.089 9.58347   3
   4  -5  -6 174.664 9.08327   3
   4   5  -5 274.105 11.3315   3
   4  -5  -5 254.477 10.9947   3
   4   5  -5 250.678 11.7576   2
   4   5  -5 254.509 11.4118   1
   4  -5  -5 250.484 11.2707   1
   4   5  -5 245.331 15.2231  18
   4   5  -5 252.744 10.7065  16
   4  -5  -5 264.678 12.3102  15
   4   5  -5 247.852 10.5586  14
   4   5  -5 256.185 10.3286  15
   4   5  -5 263.724 11.4902  13
   4  -5  -5 246.915 9.80902  13
  -4   5   5 260.412 10.3795  10
   4   5  -5 266.621 12.1399   7
   4  -5  -5 260.795 11.7067   9
   4   5  -4 302.655 11.7621  16
   4   5  -4 314.726 13.5168  17
   4   5  -4 293.843 16.1556  18
   4  -5  -4 290.657 10.6445   5
   4   5  -4 301.778 12.4779   1
   4  -5  -4 283.848 12.1879   1
   4   5  -4 320.600 12.6080  13
   4   5  -4 293.691 11.4410  14
   4  -5  -4 266.303 10.2551  13
  -4  -5   4 287.894 12.4102  13
   4  -5  -4 294.035 13.8566  11
  -4   5   4 273.086 11.3996  10
   4  -5  -4 280.621 11.7911   3
   4   5  -4 321.806 12.3257   3
  -4  -5   4 323.592 12.3247   3
  -4   5   4 295.578 12.0458   3
   4   5  -3 1328.05 39.1157   3
   4  -5  -3 1358.11 39.2228   3
  -4  -5   3 1303.63 38.9322   3
  -4   5   3 1343.39 39.0849   3
   4   5  -3 1296.58 38.5330  16
   4   5  -3 1302.19 40.2424  17
  -4   5   3 1209.20 36.4333  17
   4   5  -3 1267.06 43.8431  18
  -4  -5   3 1244.57 39.5443   6
   4   5  -3 1362.17 39.8366   1
   4  -5  -3 1277.28 39.5456   1
  -4  -5   3 1284.16 39.7350  13
   4   5  -3 1303.16 38.1322  14
   4  -5  -3 1300.15 41.8524  11
  -4   5   3 1364.22 39.7366   9
   4  -5  -2 142.710 7.92028   3
  -4  -5   2 151.372 7.70907   3
  -4   5   2 169.499 8.01016   3
   4   5  -2 142.500 8.00250   3
  -4   5   2 153.844 6.40033  17
   4   5  -2 164.846 10.8565  18
   4   5  -2 134.183 7.96215  17
  -4  -5   2 156.953 8.33610   6
  -4  -5   2 152.095 7.49178   1
  -4   5   2 161.082 7.69035   1
   4  -5  -2 162.868 8.54626   1
   4   5  -2 159.120 8.56300   1
   4   5  -2 150.160 7.18170  12
  -4  -5   2 162.036 8.32907  13
  -4  -5   2 151.928 5.38720  11
   4  -5  -2 133.048 9.13857  11
  -4  -5   2 144.012 6.51655  10
   4  -5  -2 157.963 7.54604   8
  -4   5   2 164.363 8.70869   9
  -4  -5   1 963.478 30.4398   3
  -4   5   1 969.388 30.4196   3
  -4  -5   1 1023.12 31.4972  17
   4   5  -1 957.367 30.8307  17
  -4  -5   1 956.827 33.5075  18
   4   5  -1 986.881 31.1508   3
  -4  -5   1 970.444 30.9709   6
   4  -5  -1 941.308 30.8340   3
  -4  -5   1 969.623 30.1848   1
  -4   5   1 989.313 30.2101   1
   4   5  -1 952.099 31.5266   1
   4  -5  -1 950.086 31.4487   1
   4   5  -1 995.339 29.5543  12
  -4   5   1 941.669 27.8321  13
   4  -5  -1 937.846 32.9060  11
  -4   5   1 1023.86 33.0487  11
  -4  -5   1 947.105 28.9301  10
   4  -5  -1 999.246 30.2816   8
  -4   5   1 965.540 31.7563   9
  -4   5   0 237.686 10.9501   3
  -4  -5   0 252.617 11.2142   3
  -4  -5   0 238.511 11.2050  17
  -4  -5   0 250.749 13.6130  18
   4   5   0 237.750 10.8459  17
  -4  -5   0 253.652 11.3068   6
   4   5   0 227.513 11.6558   3
   4  -5   0 267.718 12.1112   3
   4   5   0 239.147 9.93559  12
   4  -5   0 257.663 10.9134   8
   4  -5   0 243.309 12.4679  11
  -4   5   0 252.879 13.0416  11
  -4  -5   0 240.265 9.83582  10
  -4  -5   0 228.990 10.6891   1
  -4   5   0 250.529 10.8941   1
   4   5   0 226.276 11.9949   1
   4  -5   0 237.584 12.0692   1
  -4  -5  -1 464.038 18.1268   3
  -4   5  -1 442.933 17.8627   3
  -4  -5  -1 475.343 17.8862   1
  -4   5  -1 434.398 17.4240   1
  -4  -5  -1 456.906 19.9288  18
  -4  -5  -1 470.848 17.5311  17
   4   5   1 484.364 16.3238  12
  -4   5  -1 484.541 20.1264  11
   4  -5   1 427.006 18.6570  11
   4  -5   1 489.838 17.4303   8
  -4  -5  -2 532.484 20.3071   3
  -4   5  -2 498.673 19.9475   3
  -4  -5  -2 494.749 18.3761  17
  -4  -5  -2 496.854 19.3876   1
  -4   5  -2 522.645 19.6635   1
   4   5   2 484.234 17.1780  12
  -4   5  -2 500.880 21.1128  11
   4  -5   2 500.365 20.1883  11
   4  -5   2 483.092 18.4910   8
  -4  -5  -3 23.6736 5.86183   3
  -4   5  -3 7.52723 4.62157   3
  -4  -5  -3 12.7308 5.33918   1
  -4   5  -3 16.6363 5.41198   1
  -4  -5  -3 11.5776 3.51253  17
   4   5   3 8.36825 5.82408  15
   4   5   3 14.5395 2.73090  12
   4  -5   3 13.7427 3.93796  11
  -4   5  -3 13.1104 4.93119  11
   4  -5   3 13.4297 3.59053   8
  -4  -5  -4 156.540 8.89840  11
   4  -5   4 156.982 10.2769  11
  -4  -5  -4 168.911 11.8592   1
  -4   5  -4 161.343 11.3864   1
  -4  -5  -4 153.480 11.6991   3
  -4   5  -4 146.661 11.0258   3
  -4  -5  -4 156.100 9.02779  17
   4  -5   5 346.088 16.1126  11
  -4  -5  -5 348.136 18.1059   3
  -4   5  -5 308.631 16.9954   3
   4  -5   5 287.723 19.2309   2
   4   5   5 344.054 20.4139   2
   4  -5   6 27.6560 4.90144  11
   4  -5   6 23.3095 10.0465   2
   4   5   6 29.7502 10.0637   2
  -4  -5  -6 20.4802 6.48913   3
  -4   5  -6 41.2791 7.89719   3
   4   5   7-6.29709 10.0822   2
   4  -5   7-1.07236 10.0363   2
  -4  -5  -7 14.0529 7.59399   3
  -4   5  -7 10.9062 7.27881   3
   4  -5   7-9.23160 10.2558   7
   4   5   7 16.5760 10.6055   7
   4   5   8 12.0735 10.0432   2
   4  -5   8 8.97028 10.1151   2
  -4   5  -8 6.97213 3.18703  12
   4  -5   8 23.8150 10.7929   7
   4   5   8 33.2158 10.7647   7
   4   5   9 151.838 16.9692   2
   4  -5   9 182.914 17.3055   2
  -4   5  -9 208.334 11.1714  12
   4  -5   9 180.359 17.8986   7
  -4   6  13 224.190 13.0600  16
   4  -6 -12 5.23019 8.77855   4
   4   6 -12 11.6329 8.52309   4
  -4   6  12 9.67244 3.74708  16
   4  -6 -12 8.87151 6.70708  15
   4  -6 -11 19.7337 8.53053   4
   4   6 -11 15.2250 7.54395   4
  -4   6  11 22.8202 4.25637  16
   4  -6 -11 15.5635 6.49944  15
   4  -6 -10 42.7386 8.38660   4
   4   6 -10 47.5504 8.62761   4
  -4   6  10 41.5615 5.20919  16
   4  -6 -10 32.3377 7.08755  15
   4  -6  -9-1.47753 5.76950   4
   4   6  -9-1.50394 5.94745   4
  -4   6   9 1.09691 2.11399  16
   4  -6  -9-1.36940 4.88137  15
   4  -6  -8 0.64755 5.52212   4
   4   6  -8-3.31769 5.83810   4
   4  -6  -8-1.85835 4.92990  15
   4   6  -8 1.27039 2.42683   3
   4  -6  -8 4.98490 2.77338   3
   4  -6  -8-0.56586 5.43551   2
   4   6  -8-4.04513 5.47989   2
   4  -6  -7-0.88272 4.25752   7
   4   6  -7 2.72249 5.16339   7
   4  -6  -7 2.23590 3.82880  15
   4   6  -7-1.72622 5.01130   4
   4  -6  -7-5.59905 4.82577   4
   4   6  -7-0.38983 2.53325   3
   4  -6  -7 0.38206 2.38906   3
   4  -6  -7-7.00984 5.53009   2
   4   6  -7-2.56274 5.51385   2
   4   6  -6 47.6876 4.78819   1
   4  -6  -6 49.3392 4.78355   1
   4   6  -6 45.2250 5.70396   2
   4  -6  -6 46.9227 5.82870   2
   4   6  -6 51.4445 8.79935  18
   4   6  -6 49.3125 4.51322  14
   4  -6  -6 45.7459 5.74526  15
   4   6  -6 33.2784 3.90047  16
   4   6  -6 43.3399 4.67875  13
   4  -6  -6 45.1097 5.27594   9
   4  -6  -6 49.6781 5.52236   7
   4   6  -6 48.8528 6.39957   7
   4   6  -6 50.6301 4.75661   3
   4  -6  -6 53.6101 4.77846   3
   4   6  -5 163.498 8.41510   3
   4  -6  -5 168.703 8.51441   3
   4  -6  -5 158.502 9.15067   2
   4   6  -5 168.578 9.36750   2
   4   6  -5 172.602 9.04728   1
   4  -6  -5 172.094 8.87586   1
   4   6  -5 180.768 8.70425  16
   4   6  -5 154.520 12.6015  18
   4  -6  -5 178.202 9.95211  15
   4   6  -5 158.998 8.12387  14
   4   6  -5 173.915 8.45161   6
   4   6  -5 190.558 9.25449  13
  -4   6   5 177.488 8.45492  10
   4  -6  -5 170.651 8.77256   7
   4   6  -5 187.647 9.97981   7
  -4   6   5 177.437 7.69771   8
   4  -6  -5 169.711 9.60353   9
   4   6  -4 5.17433 2.39193   1
   4  -6  -4 6.18476 2.60527   1
   4   6  -4 7.66780 3.18073  17
   4   6  -4 5.90034 5.77872  18
   4  -6  -4 10.4005 3.54001  15
   4   6  -4 8.57353 2.34560  16
   4   6  -4 7.96153 2.24130  14
  -4  -6   4 15.2219 2.99477  13
  -4   6   4 10.3473 2.85695  10
   4  -6  -4 13.3149 4.07059  11
   4   6  -4 8.13409 2.64830   3
  -4  -6   4 12.8777 2.52371   3
  -4   6   4 10.6366 2.41838   3
   4  -6  -4 9.94319 2.54870   3
   4   6  -3 391.338 14.4018   3
   4  -6  -3 383.220 14.3096   3
  -4  -6   3 343.682 13.8141   3
  -4   6   3 376.610 14.1139   3
   4   6  -3 377.713 15.4943  17
   4   6  -3 388.017 19.3127  18
  -4  -6   3 361.096 15.1530   6
   4  -6  -3 389.729 13.7339   5
   4   6  -3 370.264 14.7239   1
   4  -6  -3 375.544 14.7776   1
  -4  -6   3 361.151 14.7352  13
   4   6  -3 386.554 13.6895  14
   4  -6  -3 369.815 16.9619  11
  -4   6   3 360.145 14.9766   9
   4  -6  -2 1721.84 50.4000   3
  -4   6   2 1781.17 50.2508   3
  -4  -6   2 1779.47 50.2855   3
   4   6  -2 1715.77 50.5094   3
   4   6  -2 1612.19 54.9031  18
   4   6  -2 1712.95 51.3833  17
  -4  -6   2 1769.14 54.7579  18
  -4  -6   2 1682.60 51.3981   6
  -4  -6   2 1791.89 49.7857   1
  -4   6   2 1746.25 49.6653   1
   4   6  -2 1737.83 51.2382   1
   4  -6  -2 1697.01 50.9567   1
  -4  -6   2 1650.94 50.7829  13
   4   6  -2 1729.79 49.1384  14
   4   6  -2 1677.82 49.5224  12
   4  -6  -2 1616.82 53.5578  11
  -4  -6   2 1675.01 48.9766  10
  -4   6   2 1691.46 51.5148   9
   4  -6  -2 1707.60 49.9446   8
  -4  -6   1 1279.80 38.8731   3
  -4   6   1 1261.73 38.7505   3
   4   6  -1 1282.91 39.8149  17
  -4  -6   1 1256.85 42.9284  18
   4  -6  -1 1268.36 39.4555   3
  -4  -6   1 1278.18 40.1373   6
   4   6  -1 1329.64 39.7868   3
  -4  -6   1 1345.91 38.7362   1
  -4   6   1 1253.94 38.4078   1
   4   6  -1 1289.12 40.2930   1
   4  -6  -1 1284.51 40.1065   1
   4   6  -1 1323.47 38.4285  12
  -4  -6   1 1290.62 39.8567  13
   4   6  -1 1270.60 37.5192  14
  -4  -6   1 1297.91 38.1199  10
   4  -6  -1 1252.02 42.2852  11
   4  -6  -1 1264.32 38.8548   8
  -4   6   1 1300.99 40.8494   9
  -4   6   0 263.600 11.9482   3
  -4  -6   0 279.802 12.2194   3
   4   6   0 286.835 12.3937  17
  -4  -6   0 290.804 15.5007  18
  -4  -6   0 290.244 12.8730  17
  -4  -6   0 291.873 12.9159   6
   4  -6   0 314.659 13.4838   3
  -4  -6   0 287.231 12.1147   1
  -4   6   0 274.839 11.8861   1
   4  -6   0 287.105 13.5937   1
   4   6   0 291.952 11.4831  12
   4  -6   0 260.131 14.0668  11
  -4   6   0 295.212 14.8280  11
  -4  -6   0 290.207 11.5533  10
   4  -6   0 291.088 12.2591   8
  -4  -6  -1 40.5263 5.00564   3
  -4   6  -1 43.8585 5.07032   3
  -4   6  -1 47.3845 4.95104   1
  -4  -6  -1 49.2279 5.26889   1
  -4  -6  -1 44.4871 5.09888  17
  -4  -6  -1 38.8688 7.21641  18
  -4  -6  -1 50.7239 5.28657   6
   4   6   1 47.2211 4.05681  12
  -4   6  -1 35.3524 6.19193  11
  -4  -6  -1 45.3495 4.19432  10
   4  -6   1 52.9497 6.16489  11
   4  -6   1 58.1702 5.12297   8
  -4  -6  -2 86.7689 7.30899   3
  -4   6  -2 76.2443 6.97999   3
  -4  -6  -2 85.0235 7.00659   1
  -4   6  -2 74.0596 6.65694   1
  -4  -6  -2 81.8674 6.40568  17
   4   6   2 87.7706 8.12258  15
   4   6   2 75.4583 5.28095  12
  -4   6  -2 69.0470 7.91744  11
  -4  -6  -2 86.8063 6.06628  10
   4  -6   2 95.9702 8.11774  11
   4  -6   2 85.4147 6.53203   8
  -4  -6  -3 171.548 10.8000   1
  -4   6  -3 165.883 10.6424   1
  -4  -6  -3 180.122 9.67023  17
   4   6   3 166.462 10.8974  15
   4   6   3 183.443 8.63933  12
  -4   6  -3 186.595 12.2665  11
   4  -6   3 193.547 11.4928  11
   4  -6   3 169.490 9.76134   8
  -4   6  -3 184.273 11.1811   3
  -4  -6  -3 175.058 11.2942   3
  -4  -6  -4 53.8287 7.44135   3
  -4   6  -4 46.5980 7.07369   3
   4  -6   4 56.6764 6.54116  11
  -4  -6  -4 35.7604 6.96460   1
  -4   6  -4 43.0859 7.32747   1
   4  -6   5 127.017 9.46051  11
  -4  -6  -5 127.664 10.8488   3
  -4   6  -5 131.747 10.6519   3
   4  -6   5 111.368 12.3783   2
   4   6   5 132.190 13.6364   2
   4   6   6 323.854 20.4791   2
   4  -6   6 337.229 21.0493   2
   4  -6   6 370.663 17.6128  11
  -4  -6  -6 352.860 19.0770   3
  -4   6  -6 375.021 19.2544   3
   4   6   7 350.460 21.4233   2
   4  -6   7 335.004 21.6552   2
   4  -6   7 340.934 22.1391   7
  -4  -6  -7 344.611 19.7089   3
  -4   6  -7 341.124 19.4015   3
   4  -6   8 23.8622 10.7954   7
  -4  -6  -8 44.1216 9.46715   3
  -4   6  -8 36.8262 8.78375   3
   4   6   8 26.9079 10.8040   2
   4  -6   8 30.0699 11.5187   2
  -4   6  -9 138.517 9.22990  12
   4   6   9 159.803 16.3530   2
   4  -6   9 105.610 15.4527   2
  -4  -6  -9 161.788 14.8230   3
  -4   6  -9 166.626 14.8972   3
   4  -6   9 127.731 16.4708   7
   4  -7 -12-2.09628 8.02801   4
   4   7 -12 8.39448 8.90108   4
  -4   7  12 5.92158 3.19013  16
   4  -7 -12 8.19205 7.01840  15
   4  -7 -11 108.581 12.3262   4
   4   7 -11 131.563 13.1773   4
  -4   7  11 132.091 9.54373  16
   4  -7 -11 128.901 11.3729  15
   4  -7 -10 16.8245 7.40390   4
   4   7 -10 3.37479 7.00128   4
  -4   7  10 8.38222 3.35399  16
   4  -7 -10 2.32370 5.08319  15
   4  -7  -9 140.908 11.5688   4
   4   7  -9 134.230 11.2050   4
   4  -7  -9 134.709 11.0035  15
   4  -7  -8 75.0172 8.30077   4
   4   7  -8 66.0552 8.02656   4
   4  -7  -8 67.6045 7.64588  15
   4  -7  -7 7.05932 5.11145   2
   4  -7  -7 13.2459 3.27923   1
   4   7  -7 8.01460 3.03791   1
   4   7  -7 19.7844 8.25211  18
   4  -7  -7 7.57477 4.44159  15
   4  -7  -7 7.91529 4.61824   4
   4   7  -7 8.08169 4.51740   4
   4  -7  -7 13.7646 3.23808   3
   4   7  -7 22.6508 6.48736   7
   4   7  -6 135.263 8.02958   1
   4  -7  -6 131.964 7.86335   1
   4   7  -6 148.633 8.07072  16
   4   7  -6 132.238 13.0891  18
   4  -7  -6 139.369 9.32503  15
   4   7  -6 129.891 7.76213  14
   4   7  -6 135.908 9.20729   4
   4   7  -6 132.622 8.05864  13
   4   7  -6 134.203 9.30962   7
   4  -7  -6 126.437 8.75612   9
   4  -7  -6 134.949 8.84625   2
   4   7  -6 140.909 9.08824   2
   4  -7  -6 134.746 7.67968   3
   4   7  -5 454.522 16.7716   3
   4  -7  -5 459.994 16.8025   3
   4  -7  -5 488.531 17.9989   2
   4   7  -5 467.354 17.7785   2
   4   7  -5 448.921 17.2747   1
   4  -7  -5 481.486 17.4888   1
   4   7  -5 458.756 17.2649  16
   4   7  -5 459.156 23.3684  18
   4  -7  -5 452.729 18.6137  15
   4   7  -5 460.736 16.7785  14
   4   7  -5 486.995 17.2558   6
   4   7  -5 469.195 17.5784  13
  -4   7   5 470.351 17.0259  10
   4   7  -5 467.990 18.2119   7
  -4   7   5 434.364 16.0003   8
   4  -7  -5 463.887 18.8312   9
   4   7  -4 0.65366 2.36564   3
   4  -7  -4-0.96677 2.26186   3
   4   7  -4 0.37238 2.44209   1
   4  -7  -4-0.73345 2.05099   1
   4   7  -4-2.56899 3.01376  17
   4   7  -4-7.37144 6.46723  18
   4  -7  -4 0.46490 3.10372  15
   4   7  -4-0.85513 2.00067   5
   4   7  -4-0.93784 2.12338  14
  -4  -7   4 0.41855 2.25133  13
  -4   7   4 1.86891 2.56027  10
   4  -7  -4 1.29050 3.47069  11
   4   7  -4 2.71784 3.55145   7
  -4   7   4-1.84192 2.12020   8
   4   7  -3 4.99556 2.66754   3
  -4  -7   3 2.80183 1.92807   3
  -4   7   3 1.24281 1.73882   3
   4  -7  -3 7.90184 2.74736   3
   4   7  -3 0.75533 2.49994   1
   4  -7  -3-0.74664 2.74290   1
   4   7  -3 2.85027 2.91103  17
   4   7  -3 6.02084 5.84247  18
   4  -7  -3 1.21128 2.25722   5
   4   7  -3 3.77923 2.07353  14
  -4  -7   3 4.08271 2.39561  13
   4  -7  -3 0.65917 3.59374  11
  -4  -7   3 1.20169 2.28615   9
  -4  -7   2 47.0018 4.25226   3
  -4   7   2 49.9320 4.22382   3
   4   7  -2 46.8390 4.93518   3
   4  -7  -2 46.4226 4.97421   3
  -4  -7   2 38.8307 3.83766   1
  -4   7   2 51.2961 4.25518   1
   4   7  -2 46.4744 4.97862   1
   4  -7  -2 56.2706 5.20961   1
  -4  -7   2 36.0239 7.33119  18
   4   7  -2 45.1717 4.94579  17
   4   7  -2 40.9289 3.63156  14
  -4  -7   2 35.0142 4.84507   6
   4  -7  -2 51.0817 4.44364   5
  -4  -7   2 44.1722 4.61785  13
   4  -7  -2 49.2235 6.31391  11
  -4  -7   2 48.1292 4.21099  10
  -4   7   2 49.5440 5.52913   9
  -4  -7   1 1067.55 32.3424   3
  -4   7   1 1040.12 32.1990   3
  -4  -7   1 1020.64 37.1313  18
   4   7  -1 1046.41 33.5288  17
  -4  -7   1 999.975 34.1111   6
   4  -7  -1 1056.79 33.1570   3
   4   7  -1 1040.14 33.1621   3
  -4  -7   1 1059.08 31.9822   1
  -4   7   1 1032.26 31.8949   1
   4   7  -1 1032.80 33.8121   1
   4  -7  -1 1057.76 33.7990   1
   4   7  -1 1051.50 32.1375  12
  -4  -7   1 1061.87 33.7707  13
   4   7  -1 1038.34 31.2363  14
   4  -7  -1 1035.36 36.6179  11
  -4  -7   1 988.024 31.9066  10
   4  -7  -1 1049.97 32.8152   8
  -4   7   1 1046.35 34.6827   9
  -4   7   0 79.8578 5.79454   3
  -4  -7   0 75.6532 5.66451   3
  -4  -7   0 72.4034 9.05420  18
  -4  -7   0 69.0970 6.39632  17
   4   7   0 75.2068 6.04089  17
  -4  -7   0 69.7667 6.26127   6
  -4  -7   0 77.9902 5.66981   1
  -4   7   0 79.4572 5.66546   1
   4   7   0 83.9135 5.52481  12
   4   7   0 77.6795 4.72653  14
   4  -7   0 82.5235 7.90016  11
  -4  -7   0 63.5266 5.23461  10
  -4   7   0 74.4025 7.86879  11
   4  -7   0 86.7693 6.29714   8
  -4   7   0 85.0698 7.45885   9
  -4  -7  -1 67.5847 6.00144   3
  -4   7  -1 59.0526 5.56572   3
  -4  -7  -1 74.3169 6.27191   1
  -4   7  -1 55.1508 5.61881   1
  -4  -7  -1 90.3673 9.74728  18
  -4  -7  -1 69.0983 6.23090  17
  -4  -7  -1 81.0595 6.74164   6
   4   7   1 71.0556 5.23667  12
  -4   7  -1 72.8522 8.07562  11
  -4  -7  -1 63.6886 5.36446  10
   4  -7   1 62.4404 7.05396  11
   4  -7   1 72.4664 5.94083   8
  -4   7  -2 121.137 8.46553   3
  -4  -7  -2 120.231 8.66959   3
  -4  -7  -2 125.910 8.39194   1
  -4   7  -2 127.034 8.36828   1
  -4  -7  -2 118.193 7.96077  17
   4   7   2 139.723 9.36054  15
  -4  -7  -2 128.937 8.68898   6
   4   7   2 121.282 6.96272  12
  -4   7  -2 134.833 10.5433  11
  -4  -7  -2 113.591 7.45167  10
   4  -7   2 113.941 9.41226  11
   4  -7   2 126.919 8.30412   8
  -4  -7  -3 88.1640 7.16017  17
   4   7   3 92.9660 8.66354  15
  -4   7  -3 90.8168 8.25036   3
  -4  -7  -3 113.955 9.05765   3
   4  -7   3 118.678 9.26085  11
  -4  -7  -3 99.9813 7.21651  10
  -4  -7  -3 118.474 8.79291   1
  -4  -7  -3 102.491 7.80298   6
  -4  -7  -4 4.69733 5.29503   1
   4  -7   4 9.63229 8.76050   2
   4   7   4 12.4893 8.86577   2
  -4  -7  -4-1.52254 2.97700  10
   4  -7   4 2.05395 3.68270  11
  -4  -7  -4-0.66413 4.77106   3
  -4   7  -4 2.52081 4.72866   3
   4  -7   5 150.614 10.4837  11
   4  -7   5 164.707 14.4976   2
   4   7   5 134.981 13.3808   2
  -4  -7  -5 136.211 9.06125  10
  -4  -7  -5 126.130 10.7368   3
  -4   7  -5 132.807 10.7340   3
   4  -7   6 96.6830 13.8221   7
  -4  -7  -6 77.4990 9.33863   3
  -4   7  -6 76.5874 9.11899   3
   4  -7   6 87.2915 8.39422  11
  -4  -7  -6 78.1473 7.27390  10
   4   7   6 90.7136 12.3682   2
   4  -7   6 78.3730 12.5942   2
  -4  -7  -7 8.88426 3.73286  10
   4  -7   7 11.5586 10.4272   7
   4  -7   7 1.06058 10.0173   2
   4  -7   7 16.0585 5.11290  11
  -4  -7  -7 11.8698 6.80902   3
  -4   7  -7 10.4268 6.87804   3
  -4  -7  -8 27.7750 5.40013  10
   4  -7   8 16.7002 11.1336   7
   4  -7   8 12.1403 10.3962   2
  -4  -7  -8 35.5133 9.29726   3
   4  -7   9 130.572 15.2152   2
  -4  -7  -9 160.161 14.9957   3
   4  -8 -12 29.7537 8.00140  15
  -4   8  12 24.8466 4.90947  16
   4  -8 -11 111.362 11.2324  15
  -4   8  11 85.7563 7.77263  16
   4  -8 -10 17.5699 6.21426  15
   4  -8  -9 21.5979 6.64378   4
   4  -8  -9 18.3192 6.07148  15
   4   8  -9 33.2819 10.3462  18
   4  -8  -8 33.9194 6.74807   4
   4   8  -8 26.1098 6.21304   4
   4  -8  -8 36.7491 6.43933  15
   4   8  -8 20.0167 7.86205  18
   4   8  -7-4.67829 7.52923  18
   4  -8  -7 2.84623 4.47404   4
   4   8  -7 2.29889 4.54557   4
   4  -8  -7 1.21177 4.57760  15
   4   8  -7-0.43649 2.50143   1
   4  -8  -7-1.30368 2.46053   1
   4   8  -7-0.55742 4.90439   7
   4   8  -6 139.242 14.3290  18
   4  -8  -6 175.610 10.6991  15
   4  -8  -6 169.647 10.2677   4
   4   8  -6 170.379 10.2841   4
   4   8  -6 168.609 10.4706   7
   4  -8  -6 169.802 10.6338   9
   4   8  -6 163.583 9.03563   1
   4  -8  -6 161.099 8.94584   1
   4   8  -5 3.81470 2.50221   1
   4  -8  -5-1.12530 2.36933   1
   4   8  -5 3.13120 7.08945  18
   4   8  -5 2.89128 2.42330  16
   4  -8  -5 7.10228 4.08724  15
   4   8  -5 5.52795 3.12341   6
   4   8  -5-1.07019 2.87434  14
  -4   8   5 0.38469 2.78493  10
   4  -8  -5 5.21601 3.58778   9
  -4   8   5 1.30181 2.24832   8
   4   8  -5 3.93585 4.28910   7
   4   8  -4 18.6760 3.55286   1
   4  -8  -4 18.0950 3.37384   1
   4   8  -4 15.3652 4.08276  17
   4   8  -4 18.8777 7.77140  18
   4  -8  -4 22.8663 4.33804  15
   4   8  -4 14.8280 2.76787   5
   4   8  -4 18.3887 3.59508   6
   4   8  -4 20.5727 3.14877  14
  -4  -8   4 12.6633 3.23634  13
  -4   8   4 13.2167 3.52957  10
   4  -8  -4 10.6766 4.51549  11
   4   8  -4 14.8718 4.05885   7
  -4   8   4 15.4986 3.13570   8
  -4  -8   3 1321.09 37.7667   3
  -4   8   3 1254.41 37.4959   3
   4   8  -3 1224.25 38.5557   1
   4  -8  -3 1218.55 38.4327   1
   4   8  -3 1270.26 45.6111  18
   4   8  -3 1256.27 40.2647  17
   4   8  -3 1230.99 37.5621  14
   4  -8  -3 1269.83 37.8325   5
  -4  -8   3 1251.81 39.1641  13
   4  -8  -3 1161.29 42.4176  11
  -4   8   3 1247.46 38.3076   8
  -4  -8   2 39.2698 3.98286   3
  -4   8   2 42.1994 3.88532   3
   4   8  -2 37.2616 4.78305   1
   4  -8  -2 33.7628 4.46683   1
  -4  -8   2 35.5488 3.79700   1
  -4  -8   2 22.2767 7.15565  18
   4   8  -2 36.2571 4.83054  17
   4   8  -2 38.3219 3.75390  14
  -4  -8   2 31.9540 4.82809   6
   4  -8  -2 40.3458 4.28299   5
  -4  -8   2 34.5931 4.22739  13
   4  -8  -2 36.7448 6.27217  11
  -4   8   2 26.8410 4.98692   9
  -4  -8   1 876.473 27.4439   3
  -4   8   1 832.587 27.1887   3
  -4  -8   1 930.716 27.3369   1
   4   8  -1 852.523 29.1187   1
   4  -8  -1 801.487 28.6008   1
   4   8  -1 870.303 28.9928  17
  -4  -8   1 890.099 33.4411  18
   4   8  -1 883.441 26.8405  14
  -4  -8   1 842.288 29.0403  13
   4   8  -1 867.665 27.6213  12
  -4   8   1 831.520 30.0897   9
   4  -8  -1 826.760 32.2100  11
  -4  -8   1 886.187 28.2458  10
  -4  -8   1 820.152 29.7385   6
  -4  -8   0 15.6195 3.20146   3
  -4   8   0 18.7539 3.28047   3
  -4  -8   0 21.9835 4.26009   6
  -4  -8   0 13.4193 6.95944  18
   4   8   0 18.9786 3.78284  17
   4   8   0 18.9709 3.30105  12
   4   8   0 14.8795 2.45301  14
  -4  -8   0 12.9956 3.12118  10
  -4   8   0 13.1694 5.09559  11
   4  -8   0 22.1685 5.44607  11
  -4   8   0 14.5928 4.58032   9
   4  -8   0 20.0032 3.83781   8
  -4  -8  -1 144.631 8.44772   3
  -4   8  -1 137.606 8.16230   3
  -4  -8  -1 149.962 9.63772   6
  -4  -8  -1 126.850 12.1497  18
   4   8   1 137.301 8.39886  17
  -4  -8  -1 150.132 9.18321  17
   4   8   1 159.126 8.17454  12
   4  -8   1 151.360 11.0722  11
  -4  -8  -1 142.817 8.51519  10
  -4   8  -1 130.347 10.9480  11
   4  -8   1 160.188 9.04761   8
  -4   8  -1 142.204 10.3148   9
  -4  -8  -2 200.040 14.9372  18
  -4  -8  -2 215.016 11.2913  17
  -4  -8  -2 225.564 11.2812  10
   4  -8   2 235.512 13.7031  11
  -4  -8  -2 225.019 11.6568   3
  -4   8  -2 194.388 10.9297   3
  -4  -8  -2 227.177 12.2255   6
  -4  -8  -3 44.8318 5.33988  10
   4  -8   3 50.8288 6.77098  11
  -4  -8  -3 41.6967 6.34799   3
  -4   8  -3 39.2940 5.84556   3
  -4  -8  -3 42.3468 5.66619   6
   4  -8   4 31.3317 9.42943   2
  -4  -8  -4 32.9650 4.85372  10
   4  -8   4 34.2226 5.67194  11
  -4  -8  -4 30.6860 5.91564   3
  -4  -8  -4 26.1862 4.89159   6
   4  -8   5 29.9963 10.3133   2
  -4  -8  -5 29.4263 4.85532  10
   4  -8   5 33.4227 5.88473  11
  -4  -8  -5 32.5211 6.76999   3
  -4  -8  -5 21.4039 4.64846   6
   4  -8   6 3.99171 9.50416   2
  -4  -8  -6 0.62703 3.41796  10
  -4  -8  -6-3.14351 3.64556   6
   4  -8   6 11.1052 10.6672   7
   4  -8   6 1.51891 3.91585  11
  -4  -8  -6 4.10559 5.98750   3
  -4  -8  -7 222.167 13.0554   6
  -4  -8  -7 219.659 13.0869  10
   4  -8   7 257.174 14.7956  11
   4  -8   7 222.137 18.6962   7
  -4  -8  -8 13.4345 4.56099  10
   4  -8   8-2.38306 10.6451   7
   4  -9 -11 24.8492 7.71289  15
   4   9 -11 19.8383 9.74960  18
   4  -9 -10 4.93217 6.08322  15
   4   9 -10 5.87878 8.71913  18
   4  -9  -9 68.8092 8.46332  15
   4   9  -9 53.0646 11.1697  18
   4  -9  -8 32.5114 6.60245  15
   4   9  -8 21.0783 8.90365  18
   4  -9  -7-0.62831 4.51369  15
   4   9  -7-1.23664 8.25596  18
   4  -9  -6 94.3413 8.11754  15
   4   9  -6 85.5130 12.0226  18
   4  -9  -6 76.4819 7.84724   9
   4   9  -5 1086.98 43.6907  18
   4  -9  -5 1100.88 36.8452  15
   4   9  -5 1179.16 36.1044   6
  -4   9   5 1105.02 35.5275  10
   4  -9  -5 1099.53 38.1815   9
   4   9  -4 15.1919 4.39432  17
   4   9  -4 23.3052 8.64137  18
   4  -9  -4 8.29172 3.79636  15
   4   9  -4 11.5427 2.93849   5
   4   9  -4 13.7825 3.63079   6
   4   9  -4 8.50315 3.05208  14
  -4  -9   4 9.09631 3.10353  13
  -4   9   4 14.4053 3.87089  10
   4  -9  -4 12.4848 5.07917  11
  -4   9   4 10.3662 2.99396   8
   4   9  -3 59.4920 9.84551  18
   4   9  -3 78.0399 6.96195  17
   4   9  -3 78.4904 5.47610  14
   4  -9  -3 71.0696 6.57512  15
  -4  -9   3 80.3222 6.24087  13
   4  -9  -3 74.0930 5.60912   5
   4  -9  -3 68.1059 8.22595  11
  -4   9   3 76.2905 5.91164   8
  -4  -9   2 10.7568 6.98896  18
   4   9  -2 12.6820 3.87530  17
   4  -9  -2 16.6491 3.65219   5
   4   9  -2 21.1215 3.15197  14
  -4  -9   2 7.68187 3.11570  13
   4  -9  -2 8.77218 4.94919  11
  -4   9   2 11.7392 4.49047   9
   4   9  -1 425.799 17.6136  17
  -4  -9   1 439.972 22.0834  18
   4   9  -1 449.638 15.5929  14
  -4  -9   1 428.252 17.4508  13
  -4  -9   1 420.655 18.6026   6
   4  -9  -1 450.946 16.9623   5
   4  -9  -1 421.762 20.6672  11
  -4  -9   1 415.255 16.8490  10
  -4   9   1 447.144 18.9757   9
  -4  -9   0 103.304 11.5285  18
   4   9   0 71.7714 6.34334  17
   4   9   0 83.8596 6.09318  12
  -4  -9   0 83.8137 6.58006  10
   4  -9   0 70.1918 8.26266  11
  -4   9   0 71.2527 7.56311   9
  -4  -9   0 64.8364 6.90915   6
   4  -9   1 198.499 13.6046  11
  -4  -9  -1 221.357 11.5308  10
  -4  -9  -1 250.123 16.4979  18
   4   9   1 234.766 11.3204  17
  -4  -9  -1 239.385 12.9401   6
  -4  -9  -2 76.6039 6.68411  10
   4  -9   2 64.9375 7.91517  11
  -4  -9  -2 79.8368 7.10540  17
  -4  -9  -2 70.6543 7.32373   6
  -4  -9  -3 58.6866 6.77120   6
  -4  -9  -3 65.0447 6.45945  10
   4  -9   3 70.8373 7.91079  11
  -4  -9  -4 0.64022 3.34978   6
   4  -9   4 7.74952 4.22467  11
  -4  -9  -4 0.59762 3.12692  10
  -4  -9  -5 76.4026 7.70032   6
   4  -9   5 78.8592 12.6313   7
  -4  -9  -5 81.4139 7.72135  10
   4  -9   5 65.8464 8.00027  11
  -4  -9  -6 37.2139 5.83890   6
   4  -9   6 51.7474 12.1599   7
  -4  -9  -6 25.5574 5.20742  10
   4  -9   6 52.4864 7.13365  11
   4  -9   7 35.4818 11.8458   7
  -4  -9  -7 41.0701 6.40311  10
   4  -9   7 35.6429 6.52461  11
   4  -9   8-1.18359 11.1257   7
   4  10 -11 39.7033 12.0987  18
   4 -10 -11 71.8487 10.0360  15
   4  10 -10 3.06367 8.45936  18
   4 -10 -10-4.21420 6.10076  15
   4  10  -9 26.2538 9.74645  18
   4 -10  -9 11.6605 6.27664  15
   4  10  -8-6.89559 9.98219  18
   4 -10  -8 1.42573 5.12117  15
   4  10  -7 15.6894 8.84712  18
   4 -10  -7 42.2539 6.66044  15
   4 -10  -6 81.6815 8.24017   9
   4 -10  -6 85.6476 7.96254  15
   4  10  -5 96.1050 12.3054  18
   4  10  -5 103.947 8.72872  17
   4 -10  -5 121.931 8.73938  15
   4 -10  -5 102.327 10.1458  11
  -4  10   5 105.685 7.57958  10
   4 -10  -5 120.056 9.52919   9
   4  10  -4 79.6570 11.4318  18
   4  10  -4 76.7974 7.51709  17
   4 -10  -4 67.4115 6.71214  15
   4  10  -4 72.0565 5.80232   5
  -4 -10   4 85.5861 6.56170  13
   4 -10  -4 72.1330 8.86644  11
  -4  10   4 76.6743 6.84204  10
  -4  10   4 63.0621 5.70724   8
   4  10  -3 829.285 29.7136  17
   4 -10  -3 867.125 28.8692  15
   4  10  -3 806.319 26.9329  14
  -4 -10   3 855.376 28.5157  13
   4 -10  -3 859.927 27.5038   5
   4  10  -3 830.146 27.7508   5
   4 -10  -3 829.856 33.0850  11
  -4  10   3 782.282 28.6087  10
  -4  10   3 835.832 28.1363   8
   4  10  -2 4.82417 3.74157  17
   4  10  -2 13.0056 3.15964  14
  -4 -10   2 9.88490 3.23503  13
   4 -10  -2 8.83812 3.20814   5
   4 -10  -2 12.0566 5.55029  11
  -4 -10   2 7.53766 3.67383   9
  -4  10   2 14.3735 4.80293   9
  -4  10   2 11.6757 3.41583   8
   4 -10  -1 695.460 24.0276   5
   4 -10  -1 663.162 28.5634  11
  -4 -10   1 655.169 24.2737  10
   4  10  -1 716.294 25.2601  17
  -4 -10   1 694.432 24.7566  13
  -4 -10   0 5.87660 4.28206   6
   4  10   0-0.95401 3.09962  17
  -4 -10   0 2.54230 3.30402  10
   4 -10   0-4.28524 5.14009  11
  -4 -10  -1-2.67700 4.05717   6
   4  10   1 1.37883 2.87383  17
  -4 -10  -1-1.62407 3.31657  10
   4 -10   1 3.37186 4.59502  11
  -4 -10  -2 12.2274 4.52297   6
  -4 -10  -2 23.0883 4.50676  10
   4 -10   2 23.3419 5.82603  11
  -4 -10  -3 4.13157 3.60820   6
   4 -10   3 11.5504 5.26486  11
  -4 -10  -3 9.81894 3.72599  10
  -4 -10  -4 11.8167 4.65530   6
  -4 -10  -4 14.3052 4.39459  10
   4 -10   4 16.4499 5.25774  11
  -4 -10  -5 46.5391 6.77919   6
   4 -10   5 60.2664 7.68426  11
  -4 -10  -5 56.4535 6.98007  10
  -4 -10  -6 3.55691 4.27109   6
   4 -10   6 10.7148 4.89320  11
  -4 -10  -6 9.41804 4.66805  10
  -4 -10  -7 239.384 14.3770  10
   4 -10   7 213.899 14.1505  11
   4  11 -10-4.76073 10.0213  18
   4 -11 -10 0.86267 6.29051  15
   4  11  -9 224.521 20.7518  18
   4 -11  -9 280.859 16.2138  15
   4  11  -8 66.4678 12.4108  18
   4 -11  -8 52.0141 7.91372  15
   4  11  -7 41.2516 10.6424  18
   4 -11  -7 67.6230 7.89396  15
   4  11  -6 18.3624 9.35953  18
   4 -11  -6 15.3199 5.08515   9
   4 -11  -6 14.5929 5.36522  15
   4  11  -5 216.796 17.3429  18
   4  11  -5 201.702 12.7703  17
   4 -11  -5 238.598 12.3705  15
   4 -11  -5 199.420 14.1604  11
   4 -11  -5 199.516 13.1681   9
   4  11  -4 1.30141 3.81684  17
   4  11  -4 2.36601 7.01748  18
   4 -11  -4-1.01799 3.68422  15
   4  11  -4 3.96790 2.55656   5
  -4 -11   4-1.46730 2.70104  13
   4 -11  -4 1.83745 4.94171  11
  -4  11   4 1.85566 2.69014   8
   4  11  -3 29.7045 5.34676  17
   4 -11  -3 24.2555 4.57641  15
   4  11  -3 28.2581 4.11643   5
  -4 -11   3 19.2676 3.91202  13
   4 -11  -3 30.6303 6.49569  11
  -4  11   3 22.5915 3.99545   8
   4  11  -2 119.123 8.81814  17
  -4 -11   2 115.281 7.99314  13
   4 -11  -2 113.832 7.94005  15
   4 -11  -2 103.829 10.5530  11
  -4  11   2 118.731 8.03980   8
   4 -11  -1 515.174 23.8975  11
   4  11  -1 500.665 19.9280  17
  -4 -11   1 478.916 19.3683  13
  -4 -11   0 21.6570 4.38369  10
   4 -11   0 14.6135 5.68957  11
  -4 -11   0 23.1582 4.15988  13
  -4 -11  -1 252.659 14.4949   6
   4  11   1 248.442 12.3818  17
   4 -11   1 285.653 16.4949  11
  -4 -11  -1 269.336 13.7847  10
   4 -11   2 22.0983 6.09545  11
  -4 -11  -2 25.1822 4.93564  10
  -4 -11  -2 33.7354 6.12425   6
  -4 -11  -3 10.0233 4.47186  10
   4 -11   3 13.1548 5.54680  11
  -4 -11  -3 12.7079 4.91200   6
  -4 -11  -4 12.0180 4.61412  10
   4 -11   4 22.4793 6.03550  11
  -4 -11  -4 17.3599 4.83237   6
   4 -11   5 68.7546 8.43296  11
  -4 -11  -5 54.0502 7.03839  10
  -4 -11  -5 55.5465 7.50069   6
  -4 -11  -6 4.64847 4.11204  10
   4 -11   6 3.43994 4.36994  11
  -4 -11  -6 4.58198 4.21865   6
  -4 -11  -7 26.5576 6.07296  10
   4 -11   7 22.3963 6.08031  11
   4  12 -10 1.64156 10.0583  18
   4 -12 -10 9.66687 7.29193  15
   4  12  -9-4.72697 9.34662  18
   4 -12  -9 0.81340 5.84338  15
   4  12  -8 55.6928 12.4554  18
   4 -12  -8 66.6548 8.64331  15
   4  12  -7 17.2396 9.77176  18
   4 -12  -7 20.5788 5.93495  15
   4  12  -6 176.326 17.3374  18
   4 -12  -6 167.788 12.5707   9
   4 -12  -6 212.210 12.5534  15
   4  12  -5 78.0880 12.1463  18
   4  12  -5 87.8545 8.41298  17
   4 -12  -5 102.719 8.26253  15
   4 -12  -5 79.6052 9.70451  11
   4 -12  -5 99.9443 9.71452   9
   4  12  -4 5.47853 3.73352  17
  -4 -12   4 3.53366 2.75250  13
   4  12  -4-0.96602 2.70210   5
   4 -12  -4 8.90108 5.66812  11
  -4  12   4 2.52255 3.02647   8
   4  12  -3 512.983 21.4336  17
  -4 -12   3 531.960 20.1843  13
   4  12  -3 516.779 19.8420   5
   4 -12  -3 490.059 24.6302  11
  -4  12   3 496.439 20.0660   8
   4  12  -2 17.1919 4.50096  17
  -4 -12   2 15.1387 3.86428  13
   4  12  -2 18.0500 3.71249   5
   4 -12  -2 11.9217 6.03913  11
  -4  12   2 19.4060 4.17927   8
   4 -12  -1 296.775 18.3789  11
   4  12  -1 322.853 15.0144  17
  -4 -12   1 324.810 14.6491  13
   4 -12   0 315.713 18.7298  11
   4  12   0 348.218 15.3607  17
  -4 -12   0 320.169 14.9819  13
   4  12   1 1.48642 3.00517  17
  -4 -12  -1 5.14032 3.81263  10
   4 -12   1 6.67036 4.98596  11
  -4 -12  -2 8.19710 4.01023  10
   4 -12   2 8.39771 5.47561  11
  -4 -12  -2 3.11100 4.18671   6
   4 -12   3 8.30553 4.96949  11
  -4 -12  -3 7.22834 4.38850  10
  -4 -12  -3 11.9146 4.82120   6
   4 -12   4 85.9206 9.70783  11
  -4 -12  -4 85.4882 8.92144  10
  -4 -12  -4 91.1344 9.33920   6
  -4 -12  -5 0.79789 3.92832  10
   4 -12   5 2.68239 4.54195  11
  -4 -12  -5-3.26136 4.44443   6
  -4 -12  -6 5.82422 4.76883  10
   4 -12   6 0.88899 4.78237  11
   4 -13 -10 19.6553 8.03467  15
   4  13  -9 52.0722 13.2474  18
   4 -13  -9 45.4691 8.74002  15
   4  13  -8 143.374 16.6253  18
   4  13  -7 20.8022 10.2766  18
   4 -13  -6 87.8603 9.76401   9
   4 -13  -6 98.0864 11.1314  11
   4  13  -5 128.591 15.0065  18
   4  13  -5 118.896 10.0532  17
   4 -13  -5 91.4360 11.0457  11
   4 -13  -5 118.009 10.8262   9
   4  13  -4 8.55032 4.32472  17
   4  13  -4 8.38248 3.44228   5
   4 -13  -4 7.41507 5.62423  11
  -4  13   4 7.61699 3.37442   8
   4  13  -3 52.0848 6.65940  17
  -4 -13   3 49.5340 5.48104  13
   4  13  -3 51.4787 5.65188   5
   4 -13  -3 41.3265 8.10037  11
  -4  13   3 38.4911 5.40932   8
   4  13  -2 2.47263 3.54518  17
  -4 -13   2 4.14771 3.14609  13
   4  13  -2 3.14502 2.86058   5
   4 -13  -2 10.5574 5.68029  11
  -4  13   2 12.0833 3.94359   8
   4  13  -1 139.426 9.68479  17
  -4 -13   1 137.103 9.14926  13
   4  13  -1 124.878 8.75051   5
   4 -13  -1 159.693 13.3780  11
  -4  13   1 156.260 10.0855   8
  -4 -13   0 2.76512 3.05434  13
   4 -13   0-1.02454 5.65798  11
   4  13   0 2.16413 3.10089  17
   4 -13   1 109.387 11.4664  11
  -4 -13  -1 112.062 9.62877  10
   4  13   1 134.738 8.81612  17
  -4 -13  -2 111.351 9.82289  10
   4 -13   2 133.595 12.0459  11
  -4 -13  -3 125.832 10.6975  10
   4 -13   3 126.852 11.6019  11
  -4 -13  -4 14.6330 5.19451  10
   4 -13   4 8.49528 5.22325  11
  -4 -13  -4 15.2358 5.75883   6
   4 -13   5 61.1761 8.80161  11
  -4 -13  -5 83.0135 9.27612  10
  -4 -13  -5 71.6707 8.90383   6
   4  14  -8 3.19067 9.97556  18
   4  14  -7 7.62844 9.34915  18
   4  14  -6 96.4974 14.4671  18
   4  14  -6 93.8337 9.65689  17
   4 -14  -6 87.1255 9.89633   9
   4 -14  -6 76.8703 10.4504  11
   4  14  -5 91.6098 9.47032  17
   4 -14  -5 89.1221 9.93990   9
   4 -14  -5 79.5421 10.8258  11
   4 -14  -4 94.7622 11.2778  11
   4  14  -4 101.210 9.39619  17
   4  14  -3 239.820 14.0237  17
   4 -14  -3 248.280 17.6389  11
  -4  14   3 276.806 13.8381   8
   4  14  -3 229.801 12.6632   5
   4  14  -2 23.1610 5.13936  17
   4 -14  -2 16.7370 7.06021  11
  -4  14   2 15.2890 4.21233   8
   4  14  -2 13.9830 4.30623   5
   4  14  -1 119.742 8.83383  17
   4 -14  -1 86.8262 10.7014  11
  -4  14   1 90.5876 8.13324   8
   4  14  -1 97.2049 7.96613   5
   4  14   0 107.519 8.49467  17
   4 -14   0 125.171 12.2852  11
   4 -14   1 7.36698 5.81503  11
   4 -14   2 1.02541 5.20911  11
  -4 -14  -2 3.08439 4.41927  10
  -4 -14  -3 29.4870 6.17149  10
   4 -14   3 43.1599 7.79170  11
  -4 -14  -4 46.7005 7.92550  10
   4 -14   4 62.8140 9.29261  11
  -4 -14  -5 7.21725 5.58750  10
   4  15  -7 68.6539 13.7058  18
   4 -15  -7 34.0864 8.13055  11
   4  15  -6 62.4110 8.51353  17
   4  15  -6 44.9695 12.1659  18
   4 -15  -6 53.2057 8.68712   9
   4 -15  -6 57.8129 9.78731  11
   4 -15  -5 34.3280 8.13839  11
   4  15  -5 22.7668 5.79485  17
   4 -15  -4 14.3336 6.69391  11
   4  15  -4 17.5100 5.48587  17
   4  15  -3 0.70931 3.76336  17
   4 -15  -3 8.30117 6.11457  11
  -4  15   3-0.63229 3.26017   8
   4  15  -3-3.01647 3.49824   5
   4  15  -2 8.64284 4.32443  17
   4 -15  -2 7.08182 6.52081  11
  -4  15   2 6.47594 3.97212   8
   4  15  -2 7.15450 3.69552   5
   4  15  -1 37.1539 5.71804  17
   4 -15  -1 39.3328 8.23939  11
  -4  15   1 40.7416 5.95365   8
   4  15  -1 30.8412 5.17394   5
   4 -15   0 2.26475 5.75224  11
   4  15   0 0.59707 3.12362   5
   4 -15   1 63.8100 9.77698  11
   4 -15   2 48.0384 8.58995  11
   4 -15   3 52.9964 8.65828  11
  -4 -15  -3 41.8991 7.31671  10
  -4 -15  -4 109.195 10.8555  10
   4 -16  -6 39.1931 8.38499   9
   4  16  -6 36.6640 7.51076  17
   4 -16  -5 11.2361 6.89456  11
   4  16  -5-1.66366 4.76731  17
   4 -16  -4 107.448 12.7804  11
   4  16  -4 97.4609 9.52704  17
   4  16  -3 89.6126 8.79700  17
   4 -16  -3 78.5100 11.3592  11
  -4  16   3 94.1433 8.42921   8
   4  16  -3 80.0215 7.80561   5
   4  16  -2 11.6022 4.80776  17
   4 -16  -2 16.0660 7.42330  11
  -4  16   2 17.7340 5.02693   8
   4  16  -2 17.0581 4.34691   5
   4 -16  -1 4.83446 5.75806  11
  -4  16   1 8.42209 4.43561   8
   4  16  -1 6.26386 3.67837   5
   4 -16   0 73.3426 10.6427  11
   4  16   0 74.7292 7.54213   5
   4 -16   1 12.6014 6.79898  11
   4  16   1 7.03386 3.67099   5
   4 -16   2 25.4703 7.42367  11
   4  17  -4-0.79310 4.54507  17
  -4  17   3 3.49293 3.90728   8
   4  17  -3 0.67287 3.71613   5
  -4  17   2-2.14419 4.09607   8
   4  17  -2-0.66771 4.00471   5
  -4  17   1 30.0823 6.13576   8
   4  17  -1 28.9627 5.35955   5
   5   0 -13 541.420 28.2477   4
  -5   0  13 612.056 24.4282  16
   5   0 -12 5.27197 5.88184  15
  -5   0  12-1.94836 3.14568  16
   5   0 -12-3.93885 7.38864   4
   5   0 -11 3.43062 5.35843  15
  -5   0  11 0.61203 3.50745  16
   5   0 -11-1.78001 7.21306   4
   5   0 -10-3.10168 4.45641  15
  -5   0  10 0.57210 2.37285  16
   5   0 -10 0.79961 5.78766   4
   5   0  -9 51.7524 7.00888   4
   5   0  -9 49.0042 6.19166  15
  -5   0   9 57.3125 5.64912  16
   5   0  -8-0.33545 2.13909  14
   5   0  -8-1.11207 3.07060   1
  -5   0   8-0.48780 2.47792  16
   5   0  -8-0.50160 3.54845  15
   5   0  -7 34.1512 4.54442   1
   5   0  -7 30.3402 5.50523   2
  -5   0   7 36.5485 4.28938  16
   5   0  -7 24.4544 4.37941  15
   5   0  -7 22.4265 3.73323  17
   5   0  -7 28.8508 3.42953  14
   5   0  -7 21.5719 3.67833  13
   5   0  -7 35.6527 4.67021   3
   5   0  -7 18.6876 5.17172   7
   5   0  -6 0.94397 2.32377   1
   5   0  -6 2.99166 2.35150  17
   5   0  -6 0.88265 2.89418  15
  -5   0   6-1.20859 2.13744  16
   5   0  -6-0.71493 2.21268  13
   5   0  -6-1.22066 2.94507   3
   5   0  -6 1.31639 3.68104   7
   5   0  -5 1322.69 39.1230  17
  -5   0   5 1329.77 39.8141  16
  -5   0   5 1241.97 37.3368   6
   5   0  -5 1334.26 39.5161  13
   5   0  -5 1306.05 41.1501   1
   5   0  -5 1336.06 40.3474   3
  -5   0   5 1308.21 40.6056   3
  -5   0   4-0.31690 1.45611  16
  -5   0   4 0.35244 1.64913  13
   5   0  -4-0.89991 1.98498  17
   5   0  -4-1.96307 2.59804   3
  -5   0   4 0.40672 1.93680   3
   5   0  -4 2.74644 2.52776   1
  -5   0   3 1699.74 48.6168   1
   5   0  -3 1663.85 49.9448   1
   5   0  -3 1606.67 47.6208  17
  -5   0   3 1638.50 47.3260  16
  -5   0   3 1654.48 48.2370  17
   5   0  -3 1553.10 48.7995  18
  -5   0   3 1591.87 46.6748  12
  -5   0   3 1615.17 48.1119  13
   5   0  -3 1627.82 46.3844  11
  -5   0   3 1721.83 49.5114   3
   5   0  -3 1662.28 49.1782   3
   5   0  -2 0.98813 3.08926   1
  -5   0   2-1.49562 2.60342   1
  -5   0   2-0.70392 1.36060  16
  -5   0   2 0.78237 1.51223  12
  -5   0   2 0.33407 1.79691  13
  -5   0   2-1.98174 2.57947  17
   5   0  -2 0.59677 2.89038  18
  -5   0   2 1.26295 2.33595  11
   5   0  -2 0.47323 1.69981  11
  -5   0   2-1.66845 2.36175   3
   5   0  -2-2.97673 3.52752   3
   5   0  -1 49.8353 5.76699   1
  -5   0   1 46.2467 4.82918   1
  -5   0   1 57.1279 4.25760  12
   5   0  -1 49.1867 3.95056  11
  -5   0   1 55.1514 4.69084  17
  -5   0   1 51.2821 4.99412  11
  -5   0   1 58.9550 5.31507   3
   5   0  -1 38.7571 5.39661   3
  -5   0   0-1.32100 3.39449   1
   5   0   0 1.20231 4.04844   1
  -5   0   0-1.57245 1.96644  12
  -5   0   0 2.44765 2.69553  17
   5   0   0 0.31045 1.88207  11
  -5   0   0-0.41095 2.74358  11
   5   0   0 8.66182 4.93556   3
  -5   0   0 2.92657 2.82832   3
  -5   0  -1 6.82190 3.93128   1
  -5   0  -1 6.88495 2.40628  12
  -5   0  -1 10.7834 3.42366  17
  -5   0  -1 9.33864 3.47940  11
  -5   0  -1 7.07185 3.82396   3
  -5   0  -2 5.39253 4.64778   1
  -5   0  -2 1.19832 3.15934  17
  -5   0  -2 0.37556 2.25253  12
  -5   0  -2-1.22284 4.45846   3
  -5   0  -2 1.45024 3.31124  11
  -5   0  -3 30.1034 4.09630  12
  -5   0  -3 36.3750 6.64798   3
  -5   0  -3 34.0593 5.45384  11
  -5   0  -4-4.59466 5.11240   3
  -5   0  -4 1.31160 2.59342  12
  -5   0  -5 661.428 28.2539   3
  -5   0  -5 667.078 23.8664  12
  -5   0  -6 14.7603 6.67747   3
   5   0   6-1.14569 10.7217   2
  -5   0  -6 0.49434 2.65946  12
   5   0   7 167.044 17.0202   2
  -5   0  -7 187.822 10.8483  12
   5   0   8 1.27666 10.8281   7
  -5   0  -8 0.55185 3.30967  12
  -5   0  -8 1.06745 7.37220   3
   5   0   8-7.47593 11.3436   2
   5  -1 -13 23.3477 7.53051  15
  -5   1  13 42.8952 6.28467  16
   5  -1 -13 26.9609 9.38153   4
   5   1 -13 24.9797 9.73592   4
   5  -1 -12 4.60477 5.34381  15
  -5   1  12 1.29543 2.92079  16
  -5  -1  12 2.61506 2.89082  16
   5  -1 -12-1.96572 7.32340   4
   5   1 -12-4.95277 7.22312   4
   5  -1 -11 294.085 17.7942   4
   5   1 -11 270.168 17.5758   4
   5  -1 -11 282.826 15.7978  15
   5   1 -11 272.141 15.3439  15
  -5  -1  11 317.231 15.1913  16
  -5   1  11 320.848 15.1207  16
   5  -1 -10-7.98576 6.47204   4
   5   1 -10-4.02129 6.44002   4
   5  -1 -10-2.54741 4.64384  15
   5   1 -10 4.84417 4.07783  15
  -5   1  10-0.57129 2.47484  16
  -5  -1  10 5.18914 3.05907  16
   5  -1  -9 4.95942 4.56160   4
   5   1  -9 1.42423 4.83744   4
   5  -1  -9 3.44765 3.87039  15
   5   1  -9 1.62167 3.94241  15
  -5   1   9 1.06400 2.35341  16
  -5  -1   9 5.35257 2.67854  16
   5  -1  -8 52.5911 5.32239  13
   5  -1  -8 56.4463 4.64139  14
  -5  -1   8 62.7182 5.76757  16
  -5   1   8 57.8578 5.51171  16
   5  -1  -8 56.4295 6.07310   1
   5   1  -8 47.3379 5.63636   1
   5  -1  -8 64.5823 6.45234  15
   5   1  -8 55.6719 5.96092  15
   5   1  -8 53.5795 4.66622  14
   5   1  -7 240.554 12.0140   1
   5  -1  -7 219.266 11.5247   1
   5   1  -7 234.159 11.4495  15
   5  -1  -7 221.919 11.5738  15
  -5  -1   7 241.689 11.4542  16
   5   1  -7 222.728 11.0371  17
  -5   1   7 227.410 11.1356  16
   5   1  -7 241.978 11.1417  13
   5  -1  -7 218.384 10.5260  13
   5   1  -7 239.013 10.2003  14
   5   1  -7 235.170 11.6043   3
   5  -1  -7 248.771 11.6791   3
   5  -1  -7 212.506 11.8239   2
   5   1  -7 212.506 11.8197   2
   5  -1  -7 220.479 11.6926   7
   5   1  -7 215.883 12.0432   7
   5   1  -6 80.9023 6.58359   1
   5  -1  -6 80.0653 6.43663   1
  -5  -1   6 89.2646 6.16496  16
  -5   1   6 72.7571 5.67129  16
   5   1  -6 80.9157 5.95042  17
   5  -1  -6 70.7909 5.12157  17
   5   1  -6 79.2617 6.24984  15
   5  -1  -6 76.4568 6.52632  15
   5   1  -6 76.1851 5.78547  13
   5  -1  -6 78.9662 5.60460  13
   5   1  -6 77.0888 6.15428   3
   5  -1  -6 86.8944 6.38733   3
   5   1  -6 79.6449 6.97043   7
  -5  -1   5 829.673 26.6622   6
   5   1  -5 888.632 28.4169  13
   5  -1  -5 917.759 28.1213  13
  -5  -1   5 906.907 28.7090  16
  -5   1   5 911.520 28.6223  16
   5   1  -5 875.841 28.2823  17
   5  -1  -5 881.050 27.2922  17
   5   1  -5 904.706 29.0206   3
   5  -1  -5 867.124 28.9758   3
  -5  -1   5 871.448 29.1625   3
  -5   1   5 906.494 29.3899   3
   5   1  -5 908.418 29.9361   1
   5  -1  -5 850.265 29.7431   1
   5  -1  -4 41.6245 4.61227   1
   5   1  -4 39.0163 4.39020   1
  -5   1   4 33.6336 2.86916  12
  -5  -1   4 41.1942 4.11406  13
   5   1  -4 37.0554 2.84862  12
   5   1  -4 29.7788 5.16094  18
  -5  -1   4 40.5561 3.82370  16
  -5   1   4 37.6072 3.57475  16
   5   1  -4 37.7555 3.34158  16
   5   1  -4 41.4999 4.01940  17
   5  -1  -4 36.5231 3.53415  17
   5  -1  -4 38.0320 3.97551  11
   5   1  -4 39.3758 4.48796   3
   5  -1  -4 35.3085 4.29386   3
  -5  -1   4 45.9659 4.58708   3
  -5   1   4 32.5744 3.90476   3
  -5  -1   3 1018.95 31.7564   1
  -5   1   3 1045.92 31.8723   1
   5   1  -3 937.475 32.6749   1
   5  -1  -3 1011.46 32.9954   1
  -5   1   3 974.076 29.5435  12
  -5  -1   3 1037.47 31.7182  13
  -5   1   3 1023.14 31.0402  13
   5   1  -3 996.908 29.4158  12
  -5  -1   3 981.749 31.4769  17
  -5   1   3 994.755 30.8328  17
  -5   1   3 1006.43 30.3930  16
   5   1  -3 984.401 29.9444  16
   5  -1  -3 937.945 30.9690  18
   5   1  -3 969.808 32.7042  18
   5   1  -3 947.129 30.8708  17
   5  -1  -3 992.728 30.6099  11
  -5  -1   3 1002.76 32.4737   3
  -5   1   3 1105.08 32.8220   3
   5   1  -3 1013.47 32.3325   3
   5  -1  -3 1042.77 32.4103   3
  -5  -1   2 207.072 10.1253   1
  -5   1   2 225.122 10.3090   1
   5   1  -2 205.053 10.9794   1
   5  -1  -2 200.448 10.8836   1
   5   1  -2 191.288 10.1047  18
  -5  -1   2 218.400 10.0507  17
  -5   1   2 208.232 9.45153  17
  -5   1   2 224.966 8.64173  16
   5   1  -2 206.373 8.25591  16
  -5  -1   2 210.930 9.08481  12
  -5  -1   2 209.002 9.83937  13
  -5   1   2 199.754 8.59698  12
  -5   1   2 217.907 9.52635  13
   5   1  -2 218.705 8.04022  11
   5   1  -2 199.843 8.45022  12
  -5  -1   2 219.576 9.20812  11
  -5   1   2 219.124 10.1554  11
   5  -1  -2 209.860 9.29608  11
  -5  -1   2 203.187 10.2741   3
   5   1  -2 206.097 10.6422   3
  -5   1   2 226.601 10.5749   3
   5  -1  -2 205.587 10.6563   3
  -5  -1   1 620.475 21.5759   1
  -5   1   1 608.008 21.4219   1
   5   1  -1 589.129 22.8016   1
   5  -1  -1 599.529 22.9439   1
   5   1  -1 601.433 22.1474   3
   5  -1  -1 620.435 22.4147   3
  -5  -1   1 581.553 20.0353  12
  -5   1   1 583.898 20.2761  13
  -5   1   1 594.516 19.7342  12
  -5   1   1 591.718 18.4999  16
  -5  -1   1 623.708 21.0447  17
  -5   1   1 583.917 20.2047  17
  -5  -1   1 610.431 20.5610  11
  -5   1   1 619.693 21.7738  11
   5  -1  -1 590.302 20.1950  11
  -5  -1   1 609.948 21.8677   3
  -5   1   1 589.640 21.5780   3
  -5  -1   0-0.43976 3.13518   1
  -5   1   0 0.87897 3.15725   1
   5   1   0 3.01197 4.26148   1
   5  -1   0 8.41807 4.48026   1
  -5  -1   0 0.32969 1.74931  12
  -5   1   0-0.30950 1.66486  12
  -5  -1   0-0.36399 2.71220  17
  -5   1   0-1.01089 2.56329  17
   5  -1   0 0.35145 1.99004  11
  -5  -1   0 2.19790 2.69078  11
  -5   1   0-0.45626 3.17686  11
   5   1   0 6.13127 4.65170   3
   5  -1   0 5.60523 4.72592   3
  -5  -1   0 0.97372 2.95155   3
  -5   1   0 2.91885 2.88578   3
  -5  -1  -1 715.657 25.7549   1
  -5   1  -1 704.249 25.7594   1
  -5  -1  -1 707.286 23.8734  12
  -5   1  -1 748.552 23.8810  12
   5  -1   1 731.803 24.4110  11
  -5   1  -1 734.580 24.1804  17
  -5  -1  -1 719.206 24.3649  17
  -5   1  -1 718.368 25.6225  11
  -5  -1  -1 683.001 24.3653  11
  -5  -1  -1 713.806 26.2702   3
  -5   1  -1 685.118 26.0958   3
  -5  -1  -2 76.5318 7.33590   1
  -5   1  -2 73.2627 7.34799   1
  -5  -1  -2 63.9951 5.76547  17
  -5  -1  -2 61.6843 5.17380  12
   5  -1   2 55.4991 5.48063  11
  -5   1  -2 67.5910 5.21967  12
  -5  -1  -2 47.6618 6.68975   3
  -5   1  -2 61.6886 7.10983   3
  -5   1  -2 57.4195 6.34109  11
  -5  -1  -2 62.8983 6.01446  11
  -5  -1  -3 746.186 24.8672  12
  -5   1  -3 685.503 24.3713  12
  -5  -1  -3 739.403 28.2393   3
  -5   1  -3 728.413 28.1201   3
  -5  -1  -3 730.500 25.9097  11
  -5   1  -3 678.898 26.2097  11
  -5  -1  -4 22.9945 6.35174   3
  -5   1  -4 25.9732 6.57811   3
  -5  -1  -4 23.7155 3.88521  12
  -5   1  -4 22.1612 3.71669  12
  -5  -1  -5 102.293 10.3997   3
  -5   1  -5 112.834 10.8834   3
  -5  -1  -5 114.595 7.81445  12
  -5   1  -5 102.471 7.47408  12
  -5  -1  -6 14.7761 6.55012   3
  -5   1  -6 18.3841 6.86528   3
   5  -1   6 19.4774 10.9689   2
   5   1   6 22.8684 10.9469   2
  -5  -1  -6 18.2649 3.83610  12
  -5   1  -6 17.6761 3.78971  12
  -5  -1  -7 77.8288 10.3589   3
  -5   1  -7 73.4946 10.3873   3
   5   1   7 76.7571 13.7885   2
   5  -1   7 76.9606 13.9868   2
  -5  -1  -7 90.6264 7.34927  12
  -5   1  -7 78.1328 6.87398  12
   5  -1   8 16.7141 11.5966   7
   5   1   8 17.7065 11.9955   7
  -5  -1  -8 5.05964 3.30569  12
  -5   1  -8 10.8082 3.42056  12
   5   1   8 14.9203 11.3753   2
   5  -1   8 8.71895 11.2885   2
  -5  -1  -8 12.8171 8.07297   3
  -5   1  -8 5.31924 7.64605   3
  -5   1  -9 95.7889 7.90586  12
   5  -2 -13 165.161 15.6242   4
   5   2 -13 168.633 15.8858   4
   5  -2 -13 199.004 14.3941  15
  -5   2  13 203.005 12.2801  16
   5  -2 -12 5.49216 5.59751  15
  -5   2  12 9.74470 3.45321  16
   5  -2 -12 4.92496 7.84182   4
   5   2 -12 6.99384 7.07107   4
   5  -2 -11 5.03466 4.97135  15
  -5   2  11 8.00156 3.44809  16
   5  -2 -11 3.56052 7.04302   4
   5   2 -11 15.3435 7.22994   4
   5  -2 -10 41.6568 7.79657   4
   5   2 -10 38.9542 7.96065   4
   5  -2 -10 52.4166 7.22922  15
   5   2 -10 46.6304 6.47250  15
  -5   2  10 52.5514 5.71008  16
   5  -2  -9 28.4303 6.23952   4
   5   2  -9 35.2242 6.43634   4
   5  -2  -9 29.1366 5.61963  15
   5   2  -9 34.2016 5.21950  15
  -5   2   9 25.8311 4.16803  16
  -5  -2   9 29.2996 4.38877  16
   5  -2  -8 13.8729 3.26459  13
  -5   2   8 7.96322 2.97134  16
   5   2  -8 12.8156 3.76740   1
   5  -2  -8 14.2708 3.77454   1
  -5  -2   8 11.5412 3.15550  16
   5  -2  -8 16.8089 4.45909  15
   5   2  -8 16.4114 3.99118  15
   5   2  -7 14.1387 3.50252   1
   5  -2  -7 5.98343 2.94272   1
   5   2  -7 9.35007 4.40689   2
   5  -2  -7 12.8365 4.77354   2
   5   2  -7 13.5857 3.49665  15
   5  -2  -7 6.05960 3.85492  15
  -5  -2   7 11.0541 3.03796  16
  -5   2   7 15.0155 3.18481  16
   5   2  -7 10.8801 3.81690  17
   5   2  -7 14.8560 2.88506  16
   5   2  -7 14.4955 2.81520  14
   5   2  -7 12.6418 3.22158  13
   5  -2  -7 11.9912 2.96283  13
   5   2  -7 15.0322 3.53361   3
   5  -2  -7 17.2444 3.68223   3
   5  -2  -7 10.7328 4.55065   7
   5   2  -7 10.4637 4.75660   7
   5   2  -6 16.1191 3.58317   1
   5  -2  -6 13.6369 3.48073   1
   5   2  -6 17.0834 3.72777  17
  -5   2   6 13.5664 2.91731  16
   5   2  -6 16.4651 2.74992  16
   5   2  -6 18.0724 3.64710  15
   5  -2  -6 23.7711 4.58039  15
   5   2  -6 15.9711 2.76104  14
   5   2  -6 16.2082 3.40548  13
   5  -2  -6 17.7510 3.26534  13
   5   2  -6 22.0743 3.69372   3
   5  -2  -6 12.5734 3.31517   3
   5   2  -6 13.1460 4.16868   7
  -5  -2   5 471.587 17.1281   6
   5   2  -5 509.338 19.5005   1
   5  -2  -5 504.000 19.4329   1
   5   2  -5 502.315 18.4010  13
   5  -2  -5 507.793 17.6353  13
  -5   2   5 529.261 18.6576  16
   5   2  -5 497.881 18.5186  17
   5  -2  -5 519.438 16.9332  17
   5   2  -5 498.814 17.5557  16
   5   2  -5 509.328 18.7719   3
   5  -2  -5 522.134 18.8369   3
  -5  -2   5 515.669 18.9807   3
  -5   2   5 517.315 19.0765   3
  -5   2   4 0.28479 2.58055  17
   5   2  -4 4.19606 4.37104  18
   5   2  -4-1.93196 1.63720  16
   5   2  -4 1.10134 2.27242  17
  -5   2   4 0.32238 1.56144  16
  -5  -2   4 0.29032 1.79710   6
  -5   2   4 0.53632 1.28431  12
   5   2  -4 1.18420 1.50136  12
  -5  -2   4 1.16658 1.81956  13
   5   2  -4 0.79075 2.61634   3
   5  -2  -4 1.57142 2.52906   3
  -5  -2   4-0.40472 1.99264   3
  -5   2   4 0.81134 1.99731   3
   5  -2  -4 2.29988 2.58141  11
   5   2  -4 0.46096 2.41148   1
   5  -2  -4 1.37404 2.52929   1
  -5  -2   3 960.530 29.5065   3
  -5   2   3 872.179 29.1312   3
   5  -2  -3 860.990 28.7821   3
   5   2  -3 904.739 29.1790   3
  -5  -2   3 924.811 28.5190   1
  -5   2   3 900.356 28.5010   1
   5   2  -3 851.281 29.7031   1
   5  -2  -3 875.601 29.5934   1
   5   2  -3 869.263 26.8563  16
   5   2  -3 846.724 30.3733  18
  -5   2   3 870.052 27.2454  16
  -5  -2   3 893.574 28.7799  17
  -5   2   3 867.354 27.2845  17
   5   2  -3 849.711 28.1551  17
  -5   2   3 835.286 26.2159  12
  -5  -2   3 894.934 28.6337  13
  -5   2   3 873.874 27.4822  13
   5   2  -3 902.306 26.4901  12
   5  -2  -3 843.457 28.3181  11
  -5   2   3 914.020 27.6561   9
  -5  -2   2 82.9262 6.12221   1
  -5   2   2 98.6876 6.46860   1
   5   2  -2 86.5755 6.98506   1
   5  -2  -2 96.9838 7.32643   1
   5   2  -2 90.7556 7.11892  18
   5   2  -2 92.8940 5.01941  16
  -5   2   2 88.5290 4.93768  16
  -5  -2   2 90.6580 6.40476  17
  -5   2   2 97.5579 5.76566  17
   5   2  -2 98.7992 6.25758  17
  -5  -2   2 83.3236 5.90744  13
  -5   2   2 96.0939 5.58097  13
  -5   2   2 89.6470 5.09383  12
   5   2  -2 87.3711 5.00509  12
  -5   2   2 90.6766 6.67902  11
   5  -2  -2 85.8377 6.06395  11
  -5  -2   2 93.7457 6.57438   3
  -5   2   2 86.0063 6.26372   3
   5   2  -2 78.5047 6.60394   3
   5  -2  -2 78.9189 6.81624   3
  -5  -2   1 117.017 7.27920   1
  -5   2   1 103.728 6.93548   1
   5   2  -1 100.534 7.93975   1
   5  -2  -1 91.4058 7.88889   1
   5   2  -1 107.832 7.89050   3
   5  -2  -1 108.651 7.93866   3
  -5  -2   1 100.819 6.14807  12
  -5   2   1 96.5239 5.92215  13
  -5   2   1 95.0664 5.66534  12
   5   2  -1 107.238 5.75833  12
  -5   2   1 102.813 4.94197  16
  -5  -2   1 108.214 6.88746  17
  -5   2   1 104.091 6.23019  17
  -5  -2   1 102.219 6.10396  11
  -5   2   1 104.433 7.58351  11
   5  -2  -1 109.611 6.71547  11
  -5  -2   1 117.562 7.39758   3
  -5   2   1 104.345 7.04740   3
  -5  -2   0 7.45828 3.58570   1
   5   2   0 11.5057 4.67509   1
   5  -2   0 18.0901 5.23061   1
  -5   2   0 7.00278 3.38350   1
  -5  -2   0 7.70733 2.39301  12
   5   2   0 10.8752 2.37867  12
  -5   2   0 8.68716 2.29299  12
  -5  -2   0 9.55611 3.25195  17
  -5   2   0 8.52834 2.85321  17
   5  -2   0 5.19162 2.58336  11
  -5  -2   0 10.5488 3.10903  11
  -5   2   0 9.57567 3.73725  11
  -5  -2   0 11.6566 3.36393   3
   5   2   0 18.4736 5.21956   3
   5  -2   0 14.8128 5.11638   3
  -5   2   0 13.0773 3.51488   3
  -5  -2  -1 5.33535 3.83619   1
  -5   2  -1 2.90985 3.88340   1
  -5  -2  -1-0.75120 2.12670  12
  -5   2  -1-0.34299 2.16601  12
  -5  -2  -1 1.58265 2.73260  17
   5  -2   1 0.42831 2.48357  11
  -5  -2  -1-2.24744 2.81053  11
  -5   2  -1-1.06749 3.94881  11
  -5  -2  -1-2.70963 3.98062   3
  -5   2  -1-0.54139 3.61438   3
  -5  -2  -2 173.553 10.7996   1
  -5   2  -2 179.813 10.9460   1
  -5  -2  -2 202.533 10.1287  17
  -5  -2  -2 182.366 9.37369  12
  -5   2  -2 175.686 9.07886  12
   5  -2   2 193.494 10.1751  11
  -5   2  -2 187.287 11.5564   3
  -5  -2  -2 178.354 11.4532   3
  -5   2  -2 179.525 11.0999  11
  -5  -2  -2 179.630 9.73087  11
  -5  -2  -3 9.88854 3.07345  12
  -5   2  -3 7.69770 2.78424  12
  -5  -2  -3 7.53016 5.24725   3
  -5   2  -3 10.2363 5.05386   3
   5  -2   3 7.65656 3.10266  11
  -5  -2  -3 10.8827 3.90914  11
  -5   2  -3 6.61767 4.19494  11
  -5  -2  -4 41.2961 7.31270   3
  -5   2  -4 29.6317 6.61578   3
  -5  -2  -4 43.2818 4.77166  12
  -5   2  -4 30.3973 4.18903  12
  -5  -2  -5 132.643 11.4443   3
  -5   2  -5 118.869 11.1283   3
  -5  -2  -5 127.002 8.28848  12
  -5   2  -5 115.274 7.77961  12
  -5  -2  -6 8.30710 6.92562   3
  -5   2  -6-0.91333 5.76765   3
   5  -2   6 4.57888 10.6165   2
   5   2   6 11.3858 10.5595   2
  -5  -2  -6-2.59379 3.14487  12
  -5   2  -6 0.48912 2.73546  12
  -5  -2  -7 339.961 20.0679   3
  -5   2  -7 328.895 19.9159   3
   5   2   7 323.798 22.4368   2
   5  -2   7 284.360 21.7023   2
  -5  -2  -7 346.772 15.5208  12
  -5   2  -7 321.482 14.7969  12
   5  -2   8 2.58435 12.0384   7
   5   2   8 5.00189 11.1127   7
  -5  -2  -8-2.31051 3.10694  12
  -5   2  -8 1.61284 2.96884  12
  -5  -2  -8-1.06669 7.36695   3
  -5   2  -8 12.6860 8.20299   3
   5   2   8-6.19498 11.4908   2
   5  -2   8-8.70412 11.2132   2
  -5   3  13 27.3900 5.37016  16
   5  -3 -13 34.5429 7.67600  15
   5  -3 -13 28.1452 10.2053   4
   5   3 -13 29.8229 9.79831   4
   5  -3 -12 8.01966 6.26317  15
  -5   3  12-1.31287 2.95998  16
   5  -3 -12 4.94501 7.26460   4
   5   3 -12 4.03670 7.41277   4
   5  -3 -11 47.3414 9.13300   4
   5   3 -11 71.9758 10.2705   4
   5  -3 -11 64.2319 8.17705  15
  -5   3  11 72.3091 7.09434  16
   5  -3 -10 77.1696 9.68566   4
   5   3 -10 56.5135 9.02916   4
   5  -3 -10 62.8666 7.87199  15
  -5   3  10 78.1896 6.90582  16
   5  -3  -9-0.71592 5.22038   4
   5   3  -9-6.54454 5.49394   4
  -5   3   9 1.64313 2.21946  16
   5  -3  -9 3.07956 4.45802  15
   5   3  -9 1.53551 3.73227  15
   5  -3  -8 72.8475 7.35064  15
   5   3  -8 56.3094 5.88892  15
   5   3  -8 51.9285 7.19464   4
   5  -3  -8 61.4123 5.57972  13
  -5   3   8 73.9354 6.32543  16
   5   3  -8 77.0224 6.84474   1
   5  -3  -8 62.6347 6.36323   1
   5   3  -7 273.909 13.3824   1
   5  -3  -7 279.660 13.3214   1
   5   3  -7 256.260 12.1323  15
   5  -3  -7 252.446 13.1882  15
   5   3  -7 267.873 11.7074  14
  -5   3   7 299.428 13.1215  16
   5   3  -7 271.093 13.2886  17
   5   3  -7 277.414 11.8470  16
   5   3  -7 273.909 12.5317  13
   5  -3  -7 289.691 12.0443  13
   5   3  -7 286.947 12.9843   3
   5  -3  -7 313.826 13.2533   3
   5  -3  -7 293.486 13.9597   2
   5   3  -7 270.560 13.6039   2
   5  -3  -7 255.762 13.0690   7
   5   3  -7 280.674 13.8020   7
   5   3  -6 0.94967 2.44832   1
   5  -3  -6 0.46936 2.34782   1
   5   3  -6 0.45878 2.86862  17
   5   3  -6-0.33405 1.89144  16
  -5   3   6 0.42093 1.86108  16
   5   3  -6 0.38280 2.72907  15
   5  -3  -6-0.50710 3.32554  15
   5   3  -6 0.64870 2.00770  14
   5   3  -6 2.00335 2.53022  13
   5  -3  -6-0.62793 2.05897  13
   5   3  -6-0.92678 4.35581   7
   5   3  -6-0.40951 2.66099   3
   5  -3  -6-2.42897 2.65483   3
  -5   3   5 165.899 8.59088  16
   5   3  -5 169.192 7.97573  16
   5   3  -5 149.743 8.90611  17
   5   3  -5 157.167 11.5592  18
  -5  -3   5 152.881 8.04147   6
   5   3  -5 173.974 9.45651   1
   5  -3  -5 154.516 9.15441   1
   5   3  -5 166.803 8.82942  13
   5  -3  -5 147.403 7.58497  13
   5   3  -5 168.035 7.91134  14
   5  -3  -5 160.073 9.29914  11
   5   3  -5 164.313 8.85812   3
   5  -3  -5 170.384 8.98108   3
  -5  -3   5 164.462 8.94465   3
  -5   3   5 156.878 8.80841   3
  -5   3   4 29.7520 3.45951  17
   5   3  -4 25.4202 6.07963  18
   5   3  -4 31.9664 3.21193  16
   5   3  -4 24.1461 4.00257  17
  -5   3   4 27.9759 3.39102  16
  -5  -3   4 25.3504 3.37025   6
   5   3  -4 29.2229 4.51923   1
   5  -3  -4 29.8697 4.32831   1
   5   3  -4 32.3178 2.96828  12
  -5   3   4 26.9346 2.47377  12
  -5  -3   4 23.1885 3.51384  13
   5  -3  -4 31.3942 4.61415  11
   5  -3  -4 24.8007 3.91845   3
  -5  -3   4 30.8317 3.98556   3
  -5   3   4 31.5843 3.86399   3
   5   3  -4 33.3822 4.19677   3
  -5  -3   3 126.242 7.66838   3
  -5   3   3 129.165 7.68672   3
   5   3  -3 141.094 8.04587   3
   5  -3  -3 138.399 8.11594   3
   5   3  -3 112.115 6.10305  16
  -5   3   3 128.426 6.58994  17
   5   3  -3 118.925 7.31832  17
   5   3  -3 106.510 9.00166  18
  -5   3   3 122.415 6.52131  16
  -5  -3   3 121.830 6.97175   6
   5   3  -3 117.019 6.02308  12
  -5  -3   3 126.783 7.56647  13
  -5   3   3 126.599 6.49702  13
  -5   3   3 124.982 5.87615  12
   5  -3  -3 126.015 6.42587   8
  -5   3   3 136.463 7.35021   9
   5  -3  -3 139.825 8.33164  11
  -5  -3   3 129.139 7.40979   1
  -5   3   3 135.589 7.50394   1
   5   3  -3 108.264 7.79334   1
   5  -3  -3 131.492 8.33897   1
  -5  -3   2 63.8176 5.11753   1
  -5   3   2 48.3871 4.73842   1
   5   3  -2 53.0770 5.73209   1
   5  -3  -2 53.6399 5.58590   1
  -5   3   2 58.6427 3.98140  16
  -5  -3   2 42.4250 4.82559  17
   5   3  -2 55.6054 3.87721  16
  -5   3   2 51.4547 4.23814  17
   5   3  -2 49.5154 4.80405  17
  -5  -3   2 59.3268 5.05692  13
  -5   3   2 55.6458 4.11102  13
   5   3  -2 59.0625 4.04999  12
  -5   3   2 55.4113 3.97609  12
   5  -3  -2 53.0749 5.24104  11
  -5   3   2 49.1051 5.31156  11
   5   3  -2 61.3809 6.05831   3
  -5  -3   2 59.7621 5.20833   3
  -5   3   2 52.4931 4.91108   3
   5  -3  -2 53.1521 5.62786   3
  -5  -3   1 142.681 8.24253   1
  -5   3   1 147.944 8.37150   1
   5   3  -1 142.957 9.63719   1
   5  -3  -1 158.611 9.84465   1
   5   3  -1 134.925 9.04211   3
   5  -3  -1 128.365 8.86512   3
  -5   3   1 147.743 6.37398  16
  -5  -3   1 141.466 8.26422  17
  -5  -3   1 160.717 9.62843  18
  -5   3   1 152.356 7.43705  17
  -5   3   1 148.980 7.16993  13
   5   3  -1 136.602 6.90914  12
  -5   3   1 155.839 7.33868  12
  -5   3   1 138.425 9.09449  11
   5  -3  -1 149.625 8.69451  11
  -5  -3   1 142.981 8.53059   3
  -5   3   1 132.446 8.21855   3
  -5  -3   0 240.773 11.9191   1
  -5   3   0 241.283 11.8835   1
   5   3   0 256.797 14.1461   1
   5  -3   0 235.712 13.5538   1
   5   3   0 249.649 13.2267   3
   5  -3   0 244.999 13.0229   3
   5   3   0 269.565 10.5174  12
  -5   3   0 239.016 10.5098  12
  -5  -3   0 266.529 11.3595  12
  -5  -3   0 250.573 11.6079  17
  -5   3   0 260.133 13.2510  11
   5  -3   0 253.052 11.9950  11
  -5  -3   0 249.017 10.5643  11
  -5  -3   0 243.313 12.2050   3
  -5   3   0 271.746 12.5375   3
  -5  -3  -1 479.541 19.2928   1
  -5   3  -1 494.167 19.3959   1
  -5  -3  -1 490.735 18.1707  12
   5  -3   1 458.584 18.7183  11
   5   3   1 489.541 17.0441  12
  -5   3  -1 514.210 17.7260  12
  -5  -3  -1 480.890 18.3898  17
  -5   3  -1 504.898 20.4575  11
  -5  -3  -1 489.896 17.6944  11
  -5   3  -1 463.078 19.5902   3
  -5  -3  -1 478.719 19.8710   3
  -5  -3  -2 682.882 24.7053   1
  -5   3  -2 707.035 24.8654   1
  -5  -3  -2 607.680 22.6289  12
   5  -3   2 669.309 23.9634  11
  -5   3  -2 652.301 22.3469  12
  -5  -3  -2 620.685 22.7668  17
  -5   3  -2 641.058 25.0855  11
  -5  -3  -2 653.096 22.7007  11
  -5  -3  -2 602.626 24.7021   3
  -5   3  -2 637.787 24.9977   3
  -5   3  -3 382.305 18.0166  11
  -5   3  -3 390.726 18.5210   3
  -5  -3  -3 352.897 17.9748   3
  -5  -3  -3 389.181 15.9466  12
  -5  -3  -3 396.474 16.2075  11
  -5   3  -3 383.808 15.3930  12
   5  -3   3 376.585 16.6124  11
   5  -3   4 5.85331 3.27737  11
  -5   3  -4 4.81764 2.42376  12
  -5  -3  -4 10.5284 3.08488  12
  -5  -3  -4 3.81414 5.09518   3
  -5   3  -4 2.26469 5.38417   3
  -5  -3  -5 57.4379 5.74300  12
  -5   3  -5 50.7283 5.29311  12
   5  -3   5 60.8826 12.2536   2
   5   3   5 78.5606 12.4627   2
  -5  -3  -5 53.9574 8.16981   3
  -5   3  -5 66.5028 8.94893   3
  -5  -3  -6 46.6512 5.57594  12
  -5   3  -6 36.3355 4.72263  12
   5  -3   6 35.4574 12.2278   2
   5   3   6 46.4533 12.2371   2
  -5  -3  -6 45.1273 8.53323   3
  -5   3  -6 41.6994 8.12940   3
  -5  -3  -7 1.13085 2.95805  12
  -5   3  -7-2.57628 3.09026  12
  -5  -3  -7-2.98367 6.58128   3
  -5   3  -7 8.81251 7.08731   3
   5   3   7-5.92859 10.2731   2
   5  -3   7-2.39122 10.6252   2
  -5  -3  -8 5.32355 3.31159  12
  -5   3  -8 4.29249 3.39180  12
  -5  -3  -8 8.50061 7.86278   3
  -5   3  -8 14.6763 8.13570   3
   5  -3   8 7.78794 11.5930   7
   5   3   8 16.0308 11.8461   7
   5   3   8-3.68741 11.7575   2
   5  -3   8 4.96186 11.3475   2
  -5   4  13 283.961 15.1851  16
   5  -4 -13 260.406 19.2907   4
   5   4 -13 274.291 19.5787   4
   5  -4 -12 140.505 12.0543  15
  -5   4  12 153.161 10.4677  16
   5  -4 -12 143.033 13.6729   4
   5   4 -12 144.370 14.1136   4
   5  -4 -11 1.51919 5.11572  15
  -5   4  11 2.54003 2.80810  16
   5  -4 -11-0.90038 7.16578   4
   5   4 -11 3.67593 7.13099   4
   5  -4 -10 256.418 14.6940  15
  -5   4  10 268.443 13.5665  16
   5  -4 -10 244.904 15.6129   4
   5   4 -10 263.603 16.1862   4
   5  -4  -9 14.7232 5.05540  15
  -5   4   9 18.4653 3.95826  16
   5  -4  -9 27.4741 6.18522   4
   5   4  -9 16.9587 5.51604   4
   5  -4  -8 8.34618 4.86845   4
   5   4  -8 18.8467 5.61674   4
   5  -4  -8 21.5884 4.28898   1
   5   4  -8 17.5982 3.94278   1
   5  -4  -8 13.5573 4.62224  15
  -5   4   8 14.5218 3.42665  16
   5   4  -7 66.9746 6.64657  17
  -5   4   7 54.3807 5.56341  16
   5   4  -7 56.3006 5.47101  15
   5  -4  -7 61.8252 6.76661  15
   5   4  -7 63.0981 6.04416   1
   5  -4  -7 73.0713 6.38145   1
   5  -4  -7 62.0763 6.86106   2
   5   4  -7 70.5169 7.10426   2
   5   4  -7 68.1893 5.97312   3
   5  -4  -7 57.2678 5.60047   3
   5  -4  -7 53.1615 6.38426   7
   5   4  -6 258.570 11.2751  16
   5   4  -6 281.665 13.2070  17
   5   4  -6 267.733 16.4078  18
  -5   4   6 259.626 12.1447  16
   5  -4  -6 275.590 13.5120  15
   5   4  -6 255.152 11.5129  15
   5   4  -6 282.516 12.4217  13
   5   4  -6 261.037 11.2457  14
   5   4  -6 284.258 13.2710   7
   5  -4  -6 239.088 12.0723   7
   5   4  -6 261.695 12.0132   3
   5  -4  -6 277.341 12.1602   3
   5   4  -6 275.828 12.8672   1
   5  -4  -6 263.359 12.6340   1
   5   4  -5 430.366 16.7056   1
   5  -4  -5 398.075 16.3251   1
   5   4  -5 402.143 14.8656  16
   5   4  -5 397.940 16.4851  17
  -5   4   5 391.231 15.4881  16
   5   4  -5 386.165 19.6774  18
   5   4  -5 395.943 15.7054  13
   5   4  -5 399.847 14.7934  14
   5  -4  -5 375.027 16.6178  11
   5   4  -5 388.282 15.5736   3
   5  -4  -5 402.520 15.6767   3
  -5  -4   5 392.782 15.7936   3
  -5   4   5 386.678 15.8548   3
   5   4  -4 4.20453 3.17727   1
   5  -4  -4 3.69549 2.86395   1
   5   4  -4 5.94521 5.53960  18
   5   4  -4 9.61823 3.26156  17
  -5   4   4 4.49127 2.18774  16
   5   4  -4 6.88235 2.15577  16
  -5  -4   4 4.61618 2.57330   6
   5   4  -4 5.61846 1.92680  12
  -5   4   4 5.03688 1.55891  12
  -5  -4   4 9.35134 2.66275  13
   5  -4  -4 5.75886 3.43713  11
   5  -4  -4 5.93098 3.03232   3
  -5  -4   4 7.69122 2.63542   3
  -5   4   4 6.05891 2.37483   3
   5   4  -4 13.2006 3.41506   3
  -5  -4   3 557.355 19.8758   3
  -5   4   3 561.551 19.9904   3
   5   4  -3 564.083 20.1017   3
   5  -4  -3 551.275 19.9468   3
   5   4  -3 530.999 18.1654  16
  -5   4   3 514.611 17.6373  17
   5   4  -3 526.980 19.8988  17
   5   4  -3 541.536 22.9635  18
  -5  -4   3 507.524 19.1489   6
  -5  -4   3 542.893 19.3319   1
  -5   4   3 548.464 19.3643   1
   5   4  -3 538.841 20.6625   1
   5  -4  -3 561.455 20.7376   1
   5   4  -3 548.854 17.9250  12
  -5  -4   3 562.416 19.9853  13
  -5   4   3 534.378 17.3959  12
   5  -4  -3 534.628 21.0792  11
   5  -4  -3 539.791 18.2683   8
  -5   4   3 540.320 19.3324   9
  -5  -4   2 552.315 20.0433   3
  -5   4   2 535.082 19.9650   3
   5   4  -2 574.007 20.7351   3
   5  -4  -2 554.544 20.4081   3
  -5  -4   2 547.453 20.4536  17
   5   4  -2 574.177 18.3134  16
  -5   4   2 526.694 18.0143  17
   5   4  -2 539.976 19.9670  17
  -5  -4   2 535.986 19.6056   6
  -5  -4   2 557.724 19.6280   1
  -5   4   2 558.496 19.5973   1
   5   4  -2 527.090 20.9755   1
   5  -4  -2 560.694 21.1521   1
  -5  -4   2 523.265 20.0091  13
   5   4  -2 562.349 18.2773  12
  -5   4   2 564.472 18.0227  13
   5  -4  -2 528.326 21.0226  11
  -5  -4   2 522.738 17.1867  10
   5  -4  -2 571.963 18.9637   8
  -5   4   2 568.034 20.3741   9
  -5  -4   1 118.398 7.55877   3
  -5   4   1 102.209 7.10033   3
  -5   4   1 104.429 6.12918  17
   5   4  -1 99.6263 6.90206  17
  -5  -4   1 93.1388 6.98897  17
  -5   4   1 109.661 5.37542  16
  -5  -4   1 113.413 9.00611  18
   5   4  -1 117.732 8.37338   3
   5  -4  -1 110.918 8.19395   3
  -5  -4   1 114.179 7.24936   1
  -5   4   1 107.562 7.04494   1
   5   4  -1 97.0307 8.10149   1
   5  -4  -1 113.483 8.54719   1
  -5   4   1 95.1862 5.50490  13
   5   4  -1 108.290 6.04624  12
  -5   4   1 106.886 8.33102  11
   5  -4  -1 99.8679 7.62430  11
   5  -4  -1 117.635 6.89702   8
  -5  -4   0 122.738 8.15805   1
  -5   4   0 100.774 7.52461   1
   5   4   0 125.671 9.90049   1
   5  -4   0 120.902 9.50548   1
   5   4   0 128.247 9.35182   3
   5  -4   0 133.378 9.38320   3
   5   4   0 120.967 6.51286  12
  -5  -4   0 113.498 7.77010  17
  -5  -4   0 120.218 9.64607  18
  -5   4   0 129.979 9.55112  11
   5  -4   0 114.851 8.19946  11
  -5  -4   0 109.213 7.81148   3
  -5   4   0 124.895 8.14346   3
  -5  -4  -1 67.6238 6.73862   1
  -5   4  -1 90.4996 7.36585   1
   5   4   1 84.1658 5.58078  12
  -5  -4  -1 82.6174 6.46720  17
  -5   4  -1 85.9905 8.27819  11
   5  -4   1 81.5911 6.98171  11
  -5  -4  -1 87.2566 7.57748   3
  -5   4  -1 84.5037 7.39435   3
  -5  -4  -2 95.3092 8.17396   1
  -5   4  -2 100.916 8.25097   1
  -5  -4  -2 104.385 7.51059  17
   5  -4   2 89.6092 7.49775  11
   5   4   2 98.4471 6.25800  12
  -5  -4  -2 100.769 7.12707  12
  -5  -4  -2 101.180 8.74335   3
  -5   4  -2 103.962 8.90259   3
  -5   4  -2 110.649 9.43829  11
  -5  -4  -3 16.8720 3.64128  12
  -5  -4  -3 16.9351 5.70077   3
  -5   4  -3 15.3975 5.50852   3
   5  -4   3 24.7011 4.53763  11
  -5  -4  -3 13.4715 3.69370  11
  -5   4  -4 19.1688 3.52316  12
  -5  -4  -4 24.8438 4.20315  12
   5  -4   4 20.6693 4.30090  11
  -5  -4  -4 22.0170 6.32093   3
  -5   4  -4 12.6967 6.35762   3
  -5  -4  -5 201.384 14.0434   3
  -5   4  -5 199.601 13.6914   3
   5   4   5 202.064 16.9566   2
   5  -4   5 196.404 16.9712   2
  -5  -4  -5 181.985 10.6909  12
  -5   4  -5 199.647 10.4706  12
  -5  -4  -6 8.25029 6.92905   3
  -5   4  -6 5.37421 6.33983   3
   5  -4   6 10.2472 10.7519   2
   5   4   6 10.1128 10.5642   2
  -5   4  -6 9.92654 3.17186  12
  -5  -4  -6 6.06812 3.31515  12
  -5   4  -7 132.652 12.5200   3
  -5  -4  -7 108.827 11.8424   3
   5   4   7 96.3230 14.1431   2
   5  -4   7 127.468 15.9109   2
  -5  -4  -7 118.342 8.88403  12
  -5   4  -7 129.811 8.74879  12
   5  -4   8 24.6981 12.6547   7
   5   4   8 23.0009 12.2163   7
  -5  -4  -8 27.4682 9.02408   3
  -5   4  -8 21.7741 8.51850   3
  -5   4  -8 22.6619 4.42939  12
  -5  -4  -8 13.8009 4.07410  12
   5   4   8 20.6955 11.7547   2
   5  -4   8 22.1954 12.2504   2
   5  -5 -13 7.67825 8.99722   4
   5  -5 -12 97.8891 12.0581   4
   5   5 -12 99.2435 12.2714   4
  -5   5  12 93.5763 8.31187  16
   5  -5 -12 99.4565 10.5337  15
   5  -5 -11 36.2763 8.50970   4
   5   5 -11 41.8299 8.48355   4
  -5   5  11 37.4442 5.45041  16
   5  -5 -11 39.1574 7.26789  15
   5  -5 -10 250.794 15.7126   4
   5   5 -10 240.127 15.7280   4
  -5   5  10 244.308 12.9640  16
   5  -5 -10 222.049 13.8821  15
   5  -5  -9 31.4424 6.58050   4
   5   5  -9 29.1325 6.21429   4
  -5   5   9 36.1591 4.96124  16
   5   5  -9 24.6610 4.55453   1
   5  -5  -9 33.5309 5.23894   1
   5  -5  -9 30.5906 5.96527  15
   5  -5  -8 165.881 10.7878  15
  -5   5   8 175.721 10.1380  16
   5  -5  -8 161.698 11.0853   4
   5   5  -8 162.821 11.3328   4
   5   5  -8 159.835 9.97860   1
   5  -5  -8 172.192 10.1701   1
   5  -5  -8 148.179 10.0398   7
   5   5  -7 250.711 13.5607  17
  -5   5   7 261.675 12.7431  16
   5   5  -7 215.716 16.5070  18
   5  -5  -7 262.124 13.7424  15
   5   5  -7 273.252 13.3940   1
   5  -5  -7 283.716 13.2672   1
   5   5  -7 281.663 13.7610   2
   5   5  -7 281.122 12.6666   3
   5  -5  -7 289.308 12.6766   3
   5  -5  -7 254.003 13.2676   2
   5  -5  -7 266.254 13.0662   7
   5   5  -6 10.7123 2.70218  16
   5   5  -6-6.51989 6.84325  18
   5   5  -6 10.7554 3.98159  17
   5   5  -6 6.25202 3.05987  15
   5  -5  -6 9.35258 4.04397  15
   5   5  -6 8.64817 3.15455   1
   5  -5  -6 2.35251 2.46622   1
   5   5  -6 4.16441 4.19550   2
   5   5  -6 8.02987 2.66019  14
   5   5  -6 1.72255 2.85381  13
   5  -5  -6 7.67832 3.95917   7
   5   5  -6 3.89999 4.44092   7
   5   5  -6 4.11136 2.79678   3
   5  -5  -6 5.65363 2.94872   3
   5   5  -5 72.1814 6.19790   1
   5  -5  -5 75.0891 6.23690   1
   5   5  -5 94.6256 10.2876  18
   5   5  -5 77.1449 6.70442  17
   5   5  -5 78.6749 5.42883  16
   5  -5  -5 64.6509 6.79125  15
   5   5  -5 77.4947 5.34698  14
   5  -5  -5 65.7819 6.90117  11
   5   5  -5 78.5419 6.22833   3
   5  -5  -5 71.0108 5.88852   3
  -5  -5   5 77.5068 5.93113   3
  -5   5   5 71.2012 5.86689   3
   5   5  -4 99.3697 7.42173   1
   5  -5  -4 86.0457 7.10656   1
   5   5  -4 101.761 7.37720  17
   5   5  -4 104.695 6.17659  16
   5   5  -4 96.5448 10.3452  18
  -5  -5   4 87.9755 6.70821   6
   5   5  -4 102.086 5.84007  12
  -5  -5   4 99.8251 7.02222  13
   5   5  -4 87.5419 5.69405  14
   5  -5  -4 89.1452 7.81798  11
   5   5  -4 102.354 6.86690   3
   5  -5  -4 99.4792 6.82007   3
  -5  -5   4 94.7584 6.52506   3
  -5   5   4 102.095 6.78201   3
  -5  -5   3 17.0634 3.24679   3
  -5   5   3 17.4919 3.31002   3
   5  -5  -3 13.6037 3.97032   3
   5   5  -3 13.7602 3.91249   3
  -5  -5   3 22.8718 3.54963   1
   5   5  -3 22.3200 4.29443   1
   5  -5  -3 23.5162 4.29030   1
  -5   5   3 18.6189 3.35318   1
   5   5  -3 26.8231 6.53894  18
   5   5  -3 13.0347 3.54096  17
   5   5  -3 15.6798 2.74582  16
  -5  -5   3 12.9664 3.29848   6
   5   5  -3 16.6961 2.67949  12
  -5  -5   3 22.8394 3.71386  13
   5  -5  -3 17.7815 4.59283  11
  -5   5   3 18.9359 3.77651   9
  -5  -5   2 13.5539 3.32559   3
  -5   5   2 11.8560 2.93365   3
   5   5  -2 8.80028 4.25757   3
   5  -5  -2 15.6654 4.64548   3
   5   5  -2 13.7565 4.09338   1
   5  -5  -2 18.1333 4.37684   1
  -5  -5   2 12.0597 3.15078   1
  -5   5   2 11.6281 3.04965   1
   5   5  -2 8.22033 3.17241  17
   5   5  -2 14.7632 2.46958  16
  -5  -5   2 6.52022 2.92108   6
   5   5  -2 11.6604 2.47377  12
  -5  -5   2 16.0056 3.30617  13
  -5  -5   2 14.2807 2.29245  10
   5  -5  -2 8.84149 3.94922  11
  -5   5   2 13.4238 3.76626   9
   5  -5  -2 16.5297 3.06032   8
  -5  -5   1 277.699 12.5319   3
  -5   5   1 258.983 12.1833   3
  -5  -5   1 250.612 12.5213  17
  -5  -5   1 280.909 14.8910  18
   5   5  -1 279.488 12.4788  17
  -5  -5   1 288.289 12.8322   6
   5   5  -1 287.281 13.4851   3
   5  -5  -1 276.841 13.3203   3
  -5  -5   1 293.814 12.4015   1
  -5   5   1 290.598 12.3009   1
   5   5  -1 261.110 13.7792   1
   5  -5  -1 276.094 13.8808   1
  -5  -5   1 261.551 12.4719  13
   5   5  -1 275.941 11.0174  12
   5  -5  -1 275.421 13.8865  11
  -5   5   1 262.894 13.8789  11
  -5  -5   1 255.705 10.5357  10
   5  -5  -1 271.530 11.7769   8
  -5  -5   0 783.244 27.0165   3
  -5   5   0 747.875 26.6956   3
  -5  -5   0 796.978 27.0360  17
  -5  -5   0 778.160 29.2036  18
   5  -5   0 749.668 27.7529   3
   5   5   0 773.282 24.8323  12
   5  -5   0 798.980 26.1337   8
  -5   5   0 778.862 28.9141  11
   5  -5   0 773.423 28.1675  11
  -5  -5   0 765.772 26.4558   1
  -5   5   0 789.196 26.4930   1
   5  -5   0 750.869 28.7908   1
  -5  -5  -1 18.0313 4.67966   3
  -5   5  -1 37.1576 5.52721   3
  -5  -5  -1 29.9050 5.02327   1
  -5   5  -1 32.3471 5.37790   1
  -5  -5  -1 23.3724 4.61096  17
  -5   5  -1 34.8600 6.23466  11
   5  -5   1 29.9197 4.97872  11
   5   5   1 27.5237 3.49683  12
   5  -5   1 30.9682 4.53312   8
  -5  -5  -2 282.340 14.8155   3
  -5   5  -2 302.054 15.2220   3
  -5   5  -2 286.242 15.8476  11
   5  -5   2 306.851 15.0154  11
  -5  -5  -2 325.880 14.9163   1
  -5   5  -2 305.089 14.6305   1
  -5   5  -3 186.113 12.1144   3
  -5  -5  -3 189.603 12.2747   3
   5  -5   3 190.257 11.4306  11
  -5  -5  -4 12.7990 5.53841   3
  -5   5  -4 12.4864 5.55752   3
   5  -5   4 10.2711 3.94445  11
  -5  -5  -5 39.1832 7.76797   3
  -5   5  -5 16.1996 6.32939   3
   5  -5   5 30.6131 5.19394  11
   5  -5   5 15.1502 10.2445   2
   5   5   5 50.8328 11.6452   2
  -5  -5  -6 5.46091 6.12937   3
  -5   5  -6 4.41275 6.09527   3
   5  -5   6 11.3500 11.0402   2
   5   5   6-8.89419 11.0791   2
  -5   5  -6-0.50529 2.79044  12
   5  -5   7 26.7105 12.2704   7
  -5  -5  -7 7.85874 7.52460   3
  -5   5  -7 15.2628 8.13638   3
   5   5   7 12.7754 10.7724   2
   5  -5   7 13.0421 11.3417   2
  -5   5  -7 3.16022 2.76037  12
   5  -5   8 14.2844 12.6313   7
  -5   5  -8 0.54562 3.37749  12
  -5  -5  -8 3.13978 6.80090   3
  -5   5  -8 7.14592 7.05043   3
   5   5   8-3.59841 11.3743   2
   5  -5   8-11.0206 12.5343   2
   5  -6 -12 68.5019 9.52404  15
  -5   6  12 89.4146 8.10483  16
   5  -6 -12 85.3501 11.5917   4
   5   6 -12 64.6567 10.9356   4
   5  -6 -11 30.6831 7.09721  15
  -5   6  11 37.5258 5.45222  16
   5  -6 -11 34.7018 8.63746   4
   5   6 -11 44.8695 9.58093   4
   5  -6 -10 237.457 14.9423  15
  -5   6  10 265.280 13.9013  16
   5  -6 -10 255.068 16.2190   4
   5   6 -10 271.040 16.5851   4
   5  -6  -9 0.73901 5.30920   4
   5   6  -9-1.50997 5.70431   4
  -5   6   9 3.53438 2.65652  16
   5  -6  -9 2.07201 4.61126  15
   5  -6  -9 4.62733 3.43146   1
   5   6  -9-0.58772 3.67519   1
   5  -6  -8 129.428 10.0765   4
   5   6  -8 110.171 9.62803   4
   5   6  -8 112.180 8.19602   1
   5  -6  -8 135.566 8.77770   1
   5  -6  -8 107.534 9.09799  15
   5   6  -8 108.736 12.4567  18
  -5   6   8 119.874 8.41885  16
   5   6  -7 71.6466 6.26952   1
   5  -6  -7 60.0041 5.81587   1
   5  -6  -7 59.5890 7.08084   2
   5   6  -7 65.8137 6.99201   2
   5  -6  -7 46.0950 6.50167  15
   5   6  -7 65.3010 5.96068   3
   5  -6  -7 54.8446 5.54370   3
   5   6  -7 59.8667 6.97868  17
   5   6  -7 48.4378 9.31322  18
   5   6  -6 254.477 13.3886  17
   5   6  -6 248.207 16.9130  18
   5  -6  -6 261.797 13.5182  15
   5   6  -6 243.892 12.1735   1
   5  -6  -6 235.681 12.0172   1
   5  -6  -6 245.926 12.1363   7
   5   6  -6 268.346 13.2157   7
   5   6  -6 246.044 11.5650   3
   5  -6  -6 244.993 11.5181   3
   5  -6  -6 237.699 12.6025   2
   5   6  -6 262.793 12.7508   2
   5   6  -5 203.308 10.2362   3
   5  -6  -5 219.309 10.4950   3
   5   6  -5 206.994 10.9040   1
   5  -6  -5 227.313 11.1388   1
   5   6  -5 226.842 11.8562  17
   5   6  -5 209.439 9.89349  16
   5   6  -5 185.829 14.6893  18
   5   6  -5 184.940 9.31301  14
   5  -6  -5 213.066 12.0695  15
  -5  -6   5 208.630 10.8506  13
   5  -6  -5 196.555 12.2819  11
   5   6  -5 211.315 11.1057   7
   5   6  -4 4.27441 3.33440   1
   5  -6  -4 3.27875 3.46628   1
   5   6  -4 0.89035 6.39663  18
   5   6  -4 6.03823 3.64299  17
   5   6  -4 3.12140 2.01270  16
  -5  -6   4 0.47868 2.93373   6
   5   6  -4 3.50621 2.11079  14
  -5  -6   4 4.16417 2.55636  13
   5   6  -4 2.09023 1.97760  12
   5  -6  -4 4.55564 4.07012  11
  -5  -6   4 1.60092 2.32217   3
  -5   6   4 5.59818 2.39956   3
   5   6  -4 2.03074 2.85177   3
   5  -6  -4 2.00531 2.98941   3
   5  -6  -3 157.908 9.40219   3
  -5  -6   3 174.769 9.11430   3
  -5   6   3 180.718 9.24921   3
   5   6  -3 167.203 9.55442   3
   5   6  -3 177.346 13.0295  18
   5   6  -3 167.527 8.37555  16
   5   6  -3 166.377 9.69108  17
  -5  -6   3 166.254 9.77782   6
  -5  -6   3 185.363 8.99573   1
   5   6  -3 155.034 9.70001   1
   5  -6  -3 168.724 9.87526   1
   5   6  -3 165.330 8.18795  12
  -5  -6   3 174.452 9.68063  13
   5   6  -3 169.875 8.09665  14
   5  -6  -3 168.236 11.1670  11
  -5   6   3 183.092 9.89828   9
   5  -6  -2 855.343 28.5972   3
  -5  -6   2 798.951 27.7498   3
  -5   6   2 838.305 27.9111   3
   5   6  -2 856.442 28.6473   3
   5   6  -2 852.774 28.6746  17
  -5  -6   2 845.755 28.8607   6
  -5  -6   2 873.106 27.5722   1
  -5   6   2 848.986 27.4601   1
   5   6  -2 824.261 29.2660   1
   5  -6  -2 835.923 29.3584   1
   5   6  -2 832.277 26.6817  12
  -5  -6   2 817.657 28.6582  13
   5  -6  -2 791.018 30.5097  11
   5  -6  -2 878.523 27.5305   8
  -5   6   2 850.047 29.1803   9
  -5  -6   1 63.1961 5.65264   3
  -5   6   1 57.8361 5.36429   3
   5  -6  -1 60.3644 6.71180   3
  -5  -6   1 59.6512 6.23301  17
  -5  -6   1 55.4059 8.14389  18
   5   6  -1 59.2194 5.61877  17
  -5  -6   1 61.2569 5.91375   6
   5   6  -1 68.9210 7.01141   3
  -5  -6   1 63.0749 5.39739   1
  -5   6   1 57.3311 5.25924   1
   5  -6  -1 62.8134 6.96030   1
   5   6  -1 54.7628 6.79427   1
  -5  -6   1 57.5925 5.87642  13
   5   6  -1 58.3572 4.70076  12
  -5  -6   1 55.3918 4.54919  10
  -5   6   1 47.3151 6.52531  11
   5  -6  -1 43.6353 6.33304  11
  -5   6   1 52.5509 6.22806   9
   5  -6  -1 52.7497 5.12775   8
  -5  -6   0 371.814 15.7623   3
  -5   6   0 358.684 15.5649   3
  -5  -6   0 403.659 16.3270  17
  -5  -6   0 366.353 18.6917  18
  -5  -6   0 378.510 16.1542   6
   5   6   0 371.035 14.1416  12
  -5   6   0 378.785 18.0294  11
  -5  -6   0 367.273 14.3273  10
   5  -6   0 345.887 17.1989  11
  -5  -6   0 403.915 15.7657   1
  -5   6   0 357.738 15.1684   1
   5  -6   0 385.601 15.4362   8
  -5  -6  -1 3.74615 3.97243   1
  -5   6  -1 4.58420 3.88891   1
  -5   6  -1 7.06874 5.04005  11
   5  -6   1-3.23624 4.16743  11
  -5  -6  -1 2.61813 3.20888   3
  -5   6  -1 4.10291 3.33350   3
   5  -6   1 3.99303 2.91058   8
  -5  -6  -1 3.46830 2.68432  10
  -5  -6  -2 145.918 10.3248   3
  -5   6  -2 148.172 10.2556   3
  -5  -6  -2 166.283 10.3846   1
  -5   6  -2 149.679 9.89777   1
   5  -6   2 161.641 10.7487  11
   5  -6   3-2.65343 3.80156  11
  -5  -6  -3-0.66625 4.32934   3
  -5   6  -3 4.53169 4.57973   3
  -5  -6  -4 181.285 12.5218   3
  -5   6  -4 175.816 12.1549   3
   5  -6   4 175.040 11.4857  11
  -5  -6  -5 39.6500 7.63789   3
  -5   6  -5 41.3098 7.58316   3
   5  -6   5 38.7208 11.7406   2
   5   6   5 49.0746 11.8407   2
   5  -6   5 43.9253 6.33270  11
  -5  -6  -6 22.5463 7.23923   3
  -5   6  -6 13.8623 6.42984   3
   5  -6   6 21.8118 5.17657  11
   5   6   6 16.4292 10.5331   2
   5  -6   6 18.0569 10.7601   2
   5  -6   7 35.5730 12.3112   7
  -5   6  -7 8.60678 3.47939  12
  -5  -6  -7 15.5555 7.35309   3
  -5   6  -7 22.4597 7.40926   3
   5   6   7 14.8525 11.3003   2
   5  -6   7 8.23733 10.7187   2
  -5   6  -8 42.7640 5.50859  12
  -5  -6  -8 44.5219 9.35430   3
  -5   6  -8 36.0577 9.05314   3
   5   6   8 36.4969 12.0094   2
   5  -6   8 37.6076 12.6024   2
   5  -7 -12 8.90292 6.72706  15
  -5   7  12 2.79695 3.03071  16
   5  -7 -12 3.02651 7.67463   4
   5  -7 -11 12.4987 6.22169  15
  -5   7  11 20.1680 4.34666  16
   5  -7 -11 10.1065 7.63213   4
   5   7 -11 10.2535 7.33735   4
   5  -7 -10 115.925 11.4954   4
   5   7 -10 87.5694 10.6068   4
  -5   7  10 127.362 9.24036  16
   5  -7 -10 126.389 10.9446  15
   5   7 -10 105.689 8.68922   1
   5  -7  -9 0.74605 6.29449   4
   5   7  -9-4.54578 6.17790   4
   5   7  -9 6.52108 7.56360  18
  -5   7   9 10.2192 3.52821  16
   5  -7  -9 4.30626 4.79314  15
   5   7  -9 4.57861 3.16302   1
   5  -7  -9 4.55630 3.38074   1
   5  -7  -8 274.897 15.0530   4
   5   7  -8 266.846 14.7793   4
   5   7  -8 250.519 12.9371   1
   5  -7  -8 267.290 13.0683   1
   5  -7  -8 263.710 14.3694  15
   5   7  -8 259.821 19.0864  18
   5   7  -7 194.273 10.5006   1
   5  -7  -7 174.844 9.94214   1
   5  -7  -7 181.673 11.3938  15
   5   7  -7 166.245 11.2042  17
   5   7  -7 144.192 14.2016  18
   5   7  -6-0.61626 3.57342  17
   5   7  -6-1.07311 7.47182  18
   5  -7  -6 2.95399 3.97869  15
   5   7  -6 1.92841 2.55788   1
   5  -7  -6 0.47240 2.60876   1
   5  -7  -6-5.79622 4.86992   2
   5  -7  -6-2.79541 4.05234  11
   5   7  -6-1.01534 4.81411   7
   5  -7  -5 32.2149 4.55233   3
   5   7  -5 27.5099 4.91861  17
   5   7  -5 26.4749 8.71572  18
   5  -7  -5 20.0550 4.86510  15
   5   7  -5 27.9936 4.56141   1
   5  -7  -5 30.3401 4.33499   1
  -5  -7   5 34.7184 4.72217  13
   5  -7  -5 21.8760 5.45596  11
   5   7  -5 31.0725 5.50736   7
   5   7  -4-3.82065 3.63304   1
   5  -7  -4-0.94425 3.36607   1
   5   7  -4 1.07147 3.38332  17
   5   7  -4 7.65241 7.12735  18
   5   7  -4 1.14117 2.10093  16
   5   7  -4 4.33996 2.34342  14
  -5  -7   4-0.48210 2.52232  13
   5   7  -4 0.32332 2.23327  12
   5  -7  -4 2.15240 4.11177  11
  -5  -7   4 4.35545 2.32277   3
  -5   7   4 1.18709 2.24077   3
   5   7  -4 7.36414 3.25615   3
   5  -7  -4-0.40413 2.88138   3
  -5  -7   3 48.0845 4.81860   3
  -5   7   3 51.0008 4.83558   3
   5   7  -3 46.0568 5.74220   3
   5  -7  -3 55.5963 5.94273   3
   5   7  -3 51.8719 8.65876  18
   5   7  -3 61.6725 6.08135  17
   5   7  -3 56.7056 4.81148  16
  -5  -7   3 57.8342 6.25001   6
   5   7  -3 52.7095 6.07819   1
   5  -7  -3 54.5617 5.92097   1
   5   7  -3 46.5191 4.49722  12
  -5  -7   3 54.7038 5.58470  13
   5   7  -3 50.6669 4.38033  14
   5  -7  -3 46.3148 6.72660  11
  -5   7   3 41.7461 5.59140   9
  -5  -7   2 44.8689 4.70612   3
  -5   7   2 49.4588 4.87951   3
   5   7  -2 50.7572 6.16610   3
   5  -7  -2 47.7678 5.88370   3
  -5  -7   2 48.7572 7.96581  18
   5   7  -2 52.5427 5.63422  17
  -5  -7   2 44.7155 5.63574   6
   5   7  -2 54.1917 6.25748   1
  -5   7   2 49.9532 4.77244   1
  -5  -7   2 40.3395 4.43998   1
   5  -7  -2 59.4156 6.33593   1
   5   7  -2 46.0168 4.50227  12
  -5  -7   2 43.8057 5.12005  13
   5   7  -2 47.9570 4.10371  14
   5  -7  -2 44.8648 6.64529  11
  -5   7   2 46.6744 5.74742   9
   5  -7  -2 46.8438 4.87102   8
  -5  -7   1 63.1306 5.59587   3
  -5   7   1 65.7623 5.81499   3
  -5  -7   1 65.1138 8.96796  18
   5   7  -1 69.0019 6.27017  17
  -5  -7   1 60.8925 6.29472   6
   5   7  -1 75.8257 7.42038   3
   5  -7  -1 69.3595 7.18628   3
  -5  -7   1 77.7622 5.86707   1
  -5   7   1 74.0735 5.70855   1
   5  -7  -1 79.6071 7.81585   1
   5   7  -1 62.1623 7.15170   1
   5   7  -1 79.2882 5.63725  12
  -5  -7   1 64.6649 6.18545  13
   5   7  -1 69.1908 4.79006  14
  -5  -7   1 64.5347 5.23766  10
   5  -7  -1 59.6152 7.52220  11
   5  -7  -1 71.7001 6.11973   8
  -5   7   1 72.7035 7.26588   9
  -5  -7   0 467.723 18.1946   3
  -5   7   0 471.501 18.0678   3
  -5  -7   0 475.719 17.7937   1
   5   7   0 449.145 18.0716  17
  -5  -7   0 444.072 21.8110  18
  -5  -7   0 427.930 16.8347  10
  -5   7   0 442.920 20.6499  11
   5  -7   0 447.651 20.6115  11
  -5  -7   0 470.612 19.2000   6
   5  -7   0 467.745 18.0210   8
  -5   7   0 465.926 19.9682   9
  -5  -7  -1 3.22441 3.82254   1
  -5  -7  -1 5.86908 2.77619  10
  -5  -7  -1 2.26743 3.36426   6
   5  -7   1 0.70616 4.46065  11
  -5  -7  -1 4.11930 3.40903   3
  -5   7  -1 6.49895 3.39727   3
  -5   7  -2 941.597 32.6590   3
  -5  -7  -2 973.410 33.1763   3
  -5  -7  -2 941.647 32.8081   6
  -5  -7  -2 931.168 31.2231  10
   5  -7   2 920.839 34.1971  11
   5   7   2 928.863 32.7426  15
  -5  -7  -2 978.833 32.4786   1
  -5  -7  -3 160.320 9.53657  10
   5  -7   3 178.541 11.5639  11
  -5  -7  -3 163.826 11.2119   3
  -5   7  -3 145.547 10.4711   3
  -5  -7  -4 109.121 8.06520  10
   5  -7   4 113.773 9.41313  11
  -5   7  -4 84.2137 8.80688   3
  -5  -7  -4 95.1214 9.68605   3
  -5  -7  -5 0.58934 3.03883  10
   5  -7   5 1.49479 4.07416  11
  -5  -7  -5-4.90408 6.42406   3
  -5   7  -5 3.09851 5.30591   3
   5  -7   5 14.9182 10.6605   2
   5   7   5 3.07093 10.0797   2
  -5  -7  -6 16.4673 4.35557  10
   5  -7   6 15.6977 11.3549   2
   5  -7   6 17.0015 4.84770  11
  -5  -7  -6 8.91560 6.16970   3
  -5   7  -6 12.6939 6.70447   3
   5  -7   7-1.16609 11.2019   2
  -5  -7  -7 10.5590 7.35243   3
  -5  -7  -7 6.77407 3.93069  10
   5  -7   7-6.33764 10.8099   7
   5  -7   8 2.39624 12.2658   2
  -5  -7  -8 10.2082 8.12656   3
  -5   8  11 16.4374 4.42767  16
   5   8 -11 19.5360 9.31080  18
   5  -8 -11 11.1702 6.36992  15
   5   8 -10 85.4335 13.0899  18
  -5   8  10 92.4196 7.98225  16
   5  -8 -10 91.3178 9.80121  15
   5   8  -9 2.74783 7.77927  18
   5  -8  -9-2.23225 5.22254  15
   5  -8  -8 139.216 10.6150   4
   5  -8  -8 136.677 10.5489  15
   5  -8  -8 127.088 8.66095   1
   5   8  -8 111.229 13.5814  18
   5  -8  -7 72.1699 7.70554  15
   5  -8  -7 60.3309 5.99502   1
   5   8  -7 76.3656 11.3836  18
   5   8  -7 72.6771 7.79900  17
   5  -8  -6 38.9645 5.85729  15
   5   8  -6 43.3884 6.05820  17
   5   8  -6 45.8801 10.1686  18
   5  -8  -6 53.6532 7.21718  11
   5   8  -6 48.2020 5.28204   1
   5  -8  -6 53.3824 5.49324   1
   5  -8  -5 35.7041 5.92455  15
   5   8  -5 32.7954 5.34032  17
   5   8  -5 8.71666 7.68288  18
  -5  -8   5 39.0365 4.86294  13
   5  -8  -5 18.5520 5.30188  11
   5   8  -5 29.9159 4.50454   1
   5  -8  -5 22.4493 4.24138   1
   5   8  -4 113.978 8.09102   1
   5  -8  -4 106.621 8.01870   1
   5   8  -4 123.571 13.1141  18
   5   8  -4 128.180 8.96507  17
   5  -8  -4 127.916 9.27449  15
  -5  -8   4 120.389 8.17012  13
   5  -8  -4 120.393 10.3298  11
  -5  -8   4 125.312 7.48180   3
  -5   8   4 106.791 7.21447   3
  -5  -8   3 52.3970 4.95001   3
  -5   8   3 53.2740 5.18870   3
   5  -8  -3 49.8138 5.98224   1
   5   8  -3 59.7092 6.13462   1
   5   8  -3 61.0642 6.44150  17
   5   8  -3 57.7806 4.84040  14
  -5  -8   3 61.0594 6.63299   6
  -5  -8   3 61.8862 5.86127  13
   5   8  -3 54.7872 4.86934  12
   5  -8  -3 55.7004 7.80579  11
  -5   8   3 57.6679 6.47313   9
  -5  -8   2 486.268 17.6949   3
  -5   8   2 466.750 17.3775   3
   5   8  -2 448.821 18.9443   1
   5  -8  -2 446.746 18.7933   1
   5   8  -2 477.498 18.8475  17
  -5  -8   2 450.921 22.0615  18
   5   8  -2 436.449 16.1321  14
  -5  -8   2 411.109 18.8254   6
   5   8  -2 466.252 17.0382  12
  -5  -8   2 427.656 18.0879  13
   5  -8  -2 449.900 21.2126  11
  -5   8   2 438.646 18.9739   9
  -5   8   1 46.5039 4.94604   3
  -5  -8   1 39.6470 4.79842   3
  -5  -8   1 53.4539 8.99671  18
   5   8  -1 62.5638 6.33438  17
  -5  -8   1 50.4679 6.28433   6
   5   8  -1 58.6882 7.36500   1
   5  -8  -1 59.2230 7.61070   1
  -5  -8   1 57.2420 6.09127  13
   5   8  -1 62.2652 4.63191  14
   5  -8  -1 45.2958 7.07956  11
  -5   8   1 56.7196 6.76727   9
   5  -8  -1 52.0730 5.37622   8
  -5  -8   0 524.226 24.1146  18
   5   8   0 502.062 19.5663  17
   5  -8   0 474.534 22.2762  11
  -5  -8   0 503.375 18.9177  10
  -5  -8   0 494.967 19.1465   3
  -5   8   0 485.127 18.8683   3
  -5  -8   0 518.778 21.0192   6
  -5  -8  -1 6.76926 6.97988  18
  -5  -8  -1 4.64983 2.90942  10
   5  -8   1 0.76587 4.12090  11
  -5  -8  -1 6.75373 4.17165   6
  -5  -8  -1 2.01013 3.04839   3
  -5   8  -1 5.81650 3.45728   3
  -5  -8  -2 87.4722 7.06461  10
   5  -8   2 113.316 9.44741  11
  -5  -8  -2 91.8568 8.03355   6
  -5  -8  -2 87.8430 7.82605   3
  -5  -8  -3-0.64432 3.60396   6
  -5  -8  -3-3.23486 3.05333  10
   5  -8   3-2.28957 4.21501  11
  -5  -8  -3-2.58319 4.34952   3
  -5  -8  -4 228.856 13.2676   6
  -5  -8  -4 228.512 14.2131   3
   5  -8   4 259.004 14.6778  11
  -5  -8  -4 217.876 12.3089  10
   5  -8   4 245.470 18.3330   2
  -5  -8  -5 76.9104 7.91073   6
  -5  -8  -5 65.8814 9.02697   3
   5  -8   5 89.5710 8.83838  11
  -5  -8  -5 74.9728 7.37522  10
   5  -8   5 94.0276 13.3722   2
  -5  -8  -6 103.430 8.94187   6
   5  -8   6 117.612 14.8016   7
   5  -8   6 90.5494 9.07240  11
  -5  -8  -7 11.4491 4.73971   6
   5  -8   7 17.5955 11.9716   7
   5  -8   7 5.86535 4.51177  11
  -5  -8  -7 5.62167 4.26510  10
   5   9 -11 1.57530 9.24058  18
  -5   9  11 2.78188 3.25559  16
   5  -9 -11 7.94784 6.34472  15
   5   9 -10 98.6027 14.5279  18
   5  -9 -10 89.1739 10.2251  15
   5   9  -9 40.3406 10.4155  18
   5  -9  -9 46.1142 7.50492  15
   5   9  -8 249.992 20.3186  18
   5  -9  -8 297.610 15.9382  15
   5   9  -7 0.74531 4.06381  17
   5   9  -7 1.28336 8.10490  18
   5  -9  -7 8.63484 4.43540  15
   5  -9  -6 118.702 9.05378  15
   5   9  -6 87.7368 12.3300  18
   5   9  -6 98.9024 8.82944  17
   5  -9  -6 86.0154 9.30100  11
   5  -9  -5 54.2859 6.48539  15
   5  -9  -5 38.5937 6.86422  11
   5   9  -5 47.5043 6.12565  17
   5   9  -5 34.6160 9.09049  18
  -5  -9   4 105.197 7.72282  13
   5  -9  -4 112.732 8.61497  15
   5  -9  -4 98.3143 9.93679  11
   5   9  -4 83.5423 11.5606  18
   5   9  -4 82.9060 7.77999  17
   5   9  -3 43.9902 5.71456  17
  -5  -9   3 38.4250 4.92400  13
   5  -9  -3 36.5653 6.90143  11
  -5   9   3 53.4151 6.46244   9
   5   9  -2 25.4551 4.72723  17
   5   9  -2 19.3415 3.15910  14
  -5  -9   2 20.5419 4.10057  13
  -5  -9   2 20.5458 5.04683   6
   5  -9  -2 26.8678 4.10668   5
   5  -9  -2 22.9083 5.98251  11
  -5   9   2 17.8940 4.89635   9
  -5  -9   1 9.25888 3.79230  13
   5  -9  -1 1.68817 4.72074  11
   5   9  -1-3.12362 3.44510  17
  -5  -9   1 1.31691 3.81820   6
   5  -9   0 381.180 19.2301  11
  -5  -9   0 341.469 15.2936  10
   5   9   0 379.461 16.1573  17
  -5  -9   0 362.578 17.3998   6
  -5  -9  -1 8.05366 4.16398   6
   5  -9   1 10.7117 4.84148  11
  -5  -9  -1 12.7799 3.57067  10
  -5  -9  -2 912.234 33.4702   6
  -5  -9  -2 919.052 32.0176  10
   5  -9   2 980.205 35.6061  11
  -5  -9  -3 2.76517 3.76825   6
   5  -9   3-0.81433 4.38013  11
  -5  -9  -3-0.58728 3.11592  10
  -5  -9  -4-0.70156 3.97273   6
  -5  -9  -4 7.48181 3.85972  10
   5  -9   4-0.81139 4.12203  11
  -5  -9  -5 56.6819 7.24721   6
  -5  -9  -5 49.6036 6.47159  10
   5  -9   5 65.9242 7.95412  11
  -5  -9  -6-2.92075 4.28300   6
   5  -9   6-0.83324 4.10243  11
  -5  -9  -6 4.91346 3.92561  10
   5  10 -10 116.837 15.9939  18
   5 -10 -10 123.026 11.6016  15
   5  10  -9 3.00763 8.92117  18
   5 -10  -9-6.33210 5.98112  15
   5  10  -8 1.42591 8.82660  18
   5 -10  -8 3.67057 5.02897  15
   5  10  -7 36.7789 6.57436  17
   5  10  -7 32.4411 10.1254  18
   5 -10  -7 45.7323 6.93409  15
   5 -10  -6 226.805 12.9640  15
   5  10  -6 190.826 12.7441  17
   5  10  -6 192.506 17.3483  18
   5 -10  -6 223.122 14.8971  11
   5 -10  -5 8.47723 4.52707  15
   5 -10  -5 19.1057 6.08531  11
   5  10  -5 18.2645 4.91045  17
   5  10  -5 12.1298 8.03528  18
   5 -10  -4 255.002 13.1313  15
   5 -10  -4 229.040 15.2720  11
   5  10  -4 209.359 17.0113  18
   5  10  -4 215.660 12.6512  17
  -5 -10   4 217.580 11.7729  13
   5  10  -3 48.5944 5.90332  17
  -5 -10   3 45.7088 5.52019  13
   5 -10  -2 279.674 16.9466  11
   5  10  -2 284.190 14.2919  17
  -5 -10   2 295.599 13.9852  13
  -5 -10   1 1.40920 3.63306   6
   5 -10  -1 4.50580 4.91227  11
   5  10  -1-2.17564 3.29737  17
  -5 -10   1 2.24460 3.13836  13
   5 -10   0 351.187 18.8027  11
   5  10   0 334.902 15.2308  17
  -5 -10   0 327.611 16.9808   6
  -5 -10  -1 11.2875 3.96244  10
   5 -10   1 0.87782 4.97133  11
  -5 -10  -1-0.73289 3.99627   6
  -5 -10  -2 104.755 8.53143  10
   5 -10   2 135.045 11.1382  11
  -5 -10  -2 103.077 9.25160   6
  -5 -10  -3 16.5575 4.46135  10
   5 -10   3 23.2087 5.85920  11
  -5 -10  -3 17.9615 5.14977   6
  -5 -10  -4 323.664 16.3301  10
   5 -10   4 330.085 17.8938  11
  -5 -10  -4 304.383 16.7182   6
  -5 -10  -5 11.3552 4.70279  10
   5 -10   5 7.70951 4.61419  11
  -5 -10  -5 9.12044 4.56496   6
   5 -10   6 6.06941 4.66926  11
  -5 -10  -6 5.95491 4.16913  10
  -5 -10  -6 17.7260 5.82719   6
   5  11 -10 122.820 16.3883  18
   5 -11 -10 160.436 13.1989  15
   5  11  -9 37.5825 10.9629  18
   5 -11  -9 46.1953 7.93316  15
   5  11  -8 223.333 20.0446  18
   5 -11  -8 253.810 15.2594  15
   5 -11  -7-2.79468 4.82532  15
   5  11  -7-0.81696 4.27390  17
   5  11  -7 8.48819 9.19278  18
   5 -11  -7-0.97008 4.92778  11
   5 -11  -6 11.0717 4.78818  15
   5  11  -6 6.87424 4.43367  17
   5  11  -6 8.03589 8.94373  18
   5 -11  -6 4.86276 5.23516  11
   5 -11  -5 69.3353 7.57890  15
   5 -11  -5 60.5854 8.78586  11
   5  11  -5 66.7292 7.64451  17
   5  11  -5 86.4128 12.1335  18
   5 -11  -4 6.43416 4.30143  15
   5 -11  -4 8.79625 5.26112  11
   5  11  -4 2.65370 3.85248  17
  -5 -11   4 12.8258 3.56188  13
   5 -11  -3-1.70672 3.92943  15
   5 -11  -3 4.88535 4.81081  11
   5  11  -3 1.88486 3.37985  17
  -5 -11   3 3.88870 2.98855  13
   5 -11  -2 4.83474 4.84024  11
   5  11  -2 8.33158 3.97714  17
  -5 -11   2 6.76721 3.27500  13
   5 -11  -1 5.76406 5.02711  11
   5  11  -1 2.83298 3.40021  17
  -5 -11   1 5.78164 3.61708  13
  -5 -11   0 319.907 17.2670   6
   5 -11   0 346.239 19.1899  11
   5  11   0 347.179 15.6462  17
  -5 -11   0 336.173 16.0225  13
  -5 -11  -1 19.6401 4.67601  10
   5 -11   1 20.4601 6.23797  11
  -5 -11  -1 30.7472 6.18648   6
  -5 -11  -2 490.586 21.0727  10
   5 -11   2 488.805 23.6331  11
  -5 -11  -2 473.667 22.1898   6
  -5 -11  -3 1.38090 3.56016  10
   5 -11   3-4.51569 4.85789  11
  -5 -11  -3-0.80462 4.38611   6
   5 -11   4 16.9778 5.61763  11
  -5 -11  -4 26.1194 5.69617  10
  -5 -11  -4 23.5210 6.07137   6
  -5 -11  -5 59.3861 7.66795  10
   5 -11   5 61.9187 8.43962  11
  -5 -11  -5 61.9388 8.15317   6
  -5 -11  -6 4.08164 5.05413   6
   5 -12 -10 32.6453 8.44707  15
   5  12  -9-1.62283 9.73276  18
   5 -12  -9 0.82508 6.27622  15
   5  12  -8-4.63701 9.85751  18
   5 -12  -8-6.91439 5.92487  15
   5 -12  -7 48.4144 7.47332  15
   5  12  -7 64.2463 8.11216  17
   5  12  -7 33.6964 10.2764  18
   5 -12  -7 37.4335 7.84694  11
   5 -12  -6 55.5873 7.12242  15
   5  12  -6 44.3817 7.46910  17
   5  12  -6 45.8781 11.3451  18
   5 -12  -6 53.0372 8.91977  11
   5 -12  -5 1.85490 3.90472  15
   5 -12  -5 2.08890 5.14241  11
   5  12  -5 3.71470 4.50406  17
   5  12  -5-5.28905 8.74985  18
   5 -12  -4 39.5229 8.05087  11
   5  12  -4 48.3671 6.28129  17
  -5 -12   4 43.6906 5.52971  13
   5  12  -3 81.8864 6.76759   5
   5 -12  -3 70.5179 9.66736  11
   5  12  -3 77.4408 7.82539  17
  -5 -12   3 80.5400 7.15989  13
   5 -12  -2 110.947 11.5334  11
   5  12  -2 105.438 8.60614  17
  -5 -12   2 100.334 8.10657  13
   5 -12  -1 55.8713 8.39844  11
   5  12  -1 40.5916 5.70359  17
  -5 -12   1 34.4754 5.23313  13
   5 -12   0 273.722 17.5690  11
   5  12   0 250.869 13.2978  17
  -5 -12   0 282.197 14.4259  13
   5 -12   1 4.90504 5.20714  11
  -5 -12  -1 6.66719 4.94601   6
  -5 -12  -2 14.0044 4.88778  10
   5 -12   2 12.5031 5.52259  11
  -5 -12  -2 12.7393 5.04977   6
   5 -12   3 8.50622 5.02088  11
  -5 -12  -3 6.68914 4.56036  10
  -5 -12  -3 15.5327 5.76651   6
  -5 -12  -4 36.6848 6.26062  10
   5 -12   4 29.7537 6.92313  11
  -5 -12  -4 21.7444 6.48207   6
  -5 -12  -5-0.81068 4.47710  10
  -5 -12  -5 6.10537 5.34369   6
   5 -13  -9 3.34265 6.22714  15
   5 -13  -8 22.1158 7.27789  11
   5  13  -8 24.8175 6.48077  17
   5  13  -8 22.2171 10.1380  18
   5 -13  -7 61.8899 9.68626  11
   5  13  -7 74.0400 8.89006  17
   5  13  -7 58.8268 13.1188  18
   5 -13  -6 83.1071 10.7338  11
   5  13  -6 115.023 14.8031  18
   5  13  -6 87.5542 9.26625  17
   5 -13  -5 65.5055 9.73689  11
   5  13  -5 69.9409 8.04186  17
   5 -13  -4-2.21780 5.45958  11
   5  13  -4 1.44052 3.97747  17
  -5 -13   4 0.59086 3.22081  13
   5  13  -3 16.3510 3.99098   5
   5 -13  -3 19.8179 7.10643  11
   5  13  -3 20.4833 5.04157  17
  -5 -13   3 22.8557 4.66362  13
   5  13  -2-1.59358 3.28814   5
   5 -13  -2 3.25872 5.43364  11
   5  13  -2-1.28823 3.82088  17
  -5 -13   2-1.18881 3.44678  13
   5 -13  -1 250.582 17.4579  11
   5  13  -1 276.190 14.3008  17
  -5 -13   1 283.105 14.3234  13
   5 -13   0 43.0212 8.14807  11
   5  13   0 32.5769 5.16024  17
  -5 -13   0 39.7995 5.64401  13
   5 -13   1 5.13097 5.29146  11
  -5 -13  -1 0.66497 3.42910  13
  -5 -13  -2 173.018 13.2702   6
   5 -13   2 176.256 14.0473  11
  -5 -13  -3 36.1731 7.51829   6
  -5 -13  -3 29.9857 6.03603  10
   5 -13   3 45.3756 7.95491  11
  -5 -13  -4 23.6950 6.58490   6
  -5 -13  -4 29.7530 6.57468  10
   5 -14  -8-8.19481 6.87017  11
   5 -14  -7-1.17075 6.12503  11
   5  14  -7-3.58187 5.25283  17
   5  14  -7-1.54868 8.98033  18
   5 -14  -6 51.6719 9.40150  11
   5  14  -6 55.8430 7.94568  17
   5  14  -6 59.1332 12.0691  18
   5 -14  -5 70.4887 10.3670  11
   5  14  -5 59.2979 7.77616  17
   5 -14  -4 90.1398 11.3653  11
   5  14  -4 102.737 9.36045  17
  -5 -14   4 103.662 8.45477  13
   5 -14  -3 232.920 17.7106  11
   5  14  -3 284.904 15.2897  17
  -5 -14   3 267.661 13.9724  13
   5  14  -2 75.5529 7.15400   5
   5 -14  -2 84.6629 11.2813  11
   5  14  -2 78.9843 8.00257  17
  -5 -14   2 83.5880 7.67816  13
   5 -14  -1 29.2484 7.58214  11
   5  14  -1 44.0073 6.17829  17
  -5 -14   1 41.4890 5.96383  13
   5 -14   0-1.09833 5.40886  11
   5  14   0 10.7672 4.36345  17
  -5 -14   0 2.55926 3.75478  13
   5 -14   1 24.6117 6.85364  11
  -5 -14  -1 24.2110 5.19021  13
   5 -14   2 19.9430 6.58417  11
   5  15  -6 113.314 10.7204  17
   5 -15  -6 88.6679 11.7355  11
   5  15  -5 94.8421 9.38248  17
   5 -15  -5 66.7061 10.8696  11
   5  15  -4-1.53782 4.61151  17
   5 -15  -4 1.22876 5.74951  11
   5  15  -3 54.3749 7.12875  17
   5 -15  -3 48.7608 9.37523  11
   5  15  -2 29.2065 4.97734   5
   5  15  -2 30.7541 5.78572  17
   5 -15  -2 27.5218 8.23298  11
   5  15  -1 76.8910 7.41825   5
   5  15  -1 71.7487 7.73179  17
   5 -15  -1 95.2989 11.5344  11
   5 -15   0 37.7860 8.22390  11
   5 -15   1 55.5374 9.22584  11
   5  16  -4 67.7421 8.46212  17
   5  16  -3 181.667 12.5104  17
   5  16  -2 3.49127 4.40995  17
   5  16  -2 1.87559 3.75016   5
   5  16  -1-0.62935 3.47548   5
   6   0 -12 883.927 33.3189  15
  -6   0  12 929.691 33.1027  16
   6   0 -12 841.430 35.5781   4
   6   0 -11-3.90390 4.20002   1
   6   0 -11-1.35476 4.79221  15
  -6   0  11-0.65390 2.83322  16
   6   0 -11-4.39229 6.72746   4
   6   0 -10 29.7007 5.33732   1
   6   0 -10 21.1611 5.50633  15
  -6   0  10 15.3359 4.24123  16
   6   0 -10 27.0302 6.73099   4
  -6   0   9-1.14234 2.67264  16
   6   0  -9 2.30566 3.71077  15
   6   0  -9-1.93726 3.32966   1
   6   0  -8 122.704 8.97912  15
  -6   0   8 126.255 8.62475  16
   6   0  -8 134.180 9.38960   1
   6   0  -7 1.14947 3.04935   1
   6   0  -7-3.71914 3.66941  15
  -6   0   7 0.48392 2.49520  16
   6   0  -6 36.5823 4.24125  17
   6   0  -6 39.2589 4.49387  13
   6   0  -6 34.2355 5.12430   1
  -6   0   6 38.0856 4.80308   3
  -6   0   6 31.1415 4.13956  16
   6   0  -5 3.84518 2.56778  17
  -6   0   5-1.96644 2.22700  16
   6   0  -5-2.81082 3.68673   1
  -6   0   5-2.44987 2.67099   3
   6   0  -5 0.46744 3.38348   3
   6   0  -4 302.396 12.6644  17
  -6   0   4 317.330 12.7305  16
   6   0  -4 315.476 15.1073   1
  -6   0   4 296.877 13.8828   3
   6   0  -4 311.162 14.0835   3
  -6   0   4 317.542 13.4222  13
  -6   0   3-0.39862 3.09319  17
   6   0  -3-2.96016 4.12226   1
  -6   0   3-1.27530 3.32001   1
  -6   0   3-0.99948 2.61450   3
   6   0  -3-2.96749 5.15629   3
  -6   0   3-1.59353 2.61271  13
  -6   0   3 0.60861 2.03177  12
  -6   0   2 509.568 19.1093  17
  -6   0   2 566.247 20.0752   1
   6   0  -2 516.239 21.6390   1
  -6   0   2 498.573 20.0808   3
   6   0  -2 523.203 20.7953   3
  -6   0   2 534.772 18.4524  12
  -6   0   2 504.381 19.0759  13
  -6   0   1-0.81107 3.22743  17
  -6   0   1 0.93884 3.13388   1
   6   0  -1 4.03792 4.87112   1
  -6   0   1 1.60134 3.30404   3
   6   0  -1-0.55873 4.68713   3
  -6   0   1-1.43740 2.15517  12
  -6   0   1 0.41931 2.43138  13
  -6   0   0 80.2627 6.61996  17
  -6   0   0 72.9852 7.06615   1
   6   0   0 97.1167 10.0084   1
  -6   0   0 82.6537 7.34620   3
  -6   0   0 73.6462 5.83221  12
  -6   0  -1-1.90440 3.92936   3
  -6   0  -1 1.68510 2.47105  12
  -6   0  -2 307.352 16.2088   3
  -6   0  -2 307.344 13.5843  12
  -6   0  -3-3.83955 5.08165   3
  -6   0  -3-0.96026 2.65173  12
  -6   0  -4 149.205 12.1436   3
  -6   0  -4 162.079 9.65211  12
  -6   0  -5-6.36483 7.19298   3
  -6   0  -5-5.40306 3.06276  12
   6   0   6 89.2484 14.4292   2
  -6   0  -6 71.4666 10.1233   3
  -6   0  -6 67.6000 6.87090  12
   6   0   7-1.31456 11.9679   2
  -6   0  -7-0.59185 3.05165  12
  -6   0  -7 3.13068 7.08809   3
   6  -1 -13 36.3836 7.72698  15
   6  -1 -12 184.111 13.0884  15
  -6   1  12 218.103 12.9702  16
   6  -1 -12 181.997 14.9792   4
   6   1 -12 214.368 15.6848   4
   6   1 -11 14.1540 4.77413   1
   6  -1 -11 13.8997 4.58809   1
   6  -1 -11 5.56164 5.11320  15
   6   1 -11 8.60981 4.90686  15
  -6   1  11 10.4624 3.62050  16
  -6  -1  11 15.1083 3.94830  16
   6  -1 -11 0.87958 6.78563   4
   6   1 -11-0.88158 6.52751   4
   6  -1 -10 438.583 19.4655  15
   6   1 -10 424.430 19.0243  15
   6   1 -10 462.087 20.5485   1
   6  -1 -10 470.220 20.4454   1
  -6  -1  10 429.763 18.8680  16
  -6   1  10 464.757 19.3025  16
   6  -1 -10 397.650 20.5376   4
   6   1 -10 371.366 19.9618   4
  -6   1   9 17.7185 3.79264  16
  -6  -1   9 24.1490 4.26280  16
   6  -1  -9 31.7011 5.26782  15
   6   1  -9 25.0516 4.85785  15
   6   1  -9 20.8188 4.67412   1
   6  -1  -9 16.7058 4.43889   1
  -6  -1   8 197.534 10.8000  16
  -6   1   8 183.279 10.5161  16
   6   1  -8 192.085 11.4081   1
   6  -1  -8 180.726 11.3291   1
   6   1  -8 183.119 10.7915  15
   6  -1  -8 181.394 10.9788  15
   6  -1  -7 1.60010 2.52615  13
   6   1  -7-1.68484 2.95635  17
   6   1  -7 7.49197 3.53069   1
   6  -1  -7-2.29371 3.24682   1
   6   1  -7 3.04814 3.45061  15
   6  -1  -7 3.89395 3.90435  15
  -6   1   7-0.96617 2.49086  16
  -6  -1   7 0.48874 2.32735  16
  -6  -1   6 42.2941 4.63202  16
  -6   1   6 48.1135 4.84342  16
   6   1  -6 45.1100 4.95443  17
   6   1  -6 54.9827 5.34902  13
   6  -1  -6 52.0269 4.98477  13
   6   1  -6 50.6554 5.98341   1
   6  -1  -6 50.9955 5.95858   1
  -6  -1   6 47.2190 5.40681   3
  -6   1   6 45.2536 5.35792   3
  -6   1   5 25.7997 3.55904  16
   6   1  -5 27.6438 3.91774  17
   6  -1  -5 27.6018 3.57813  17
   6   1  -5 28.7533 4.88289   1
   6  -1  -5 19.6553 4.32757   1
   6   1  -5 27.1705 4.57158   3
   6  -1  -5 25.6812 4.64962   3
  -6  -1   5 23.5068 4.09812   3
  -6   1   5 30.4097 4.37061   3
  -6   1   4 169.315 9.15783  17
  -6   1   4 172.385 8.61980  16
   6   1  -4 187.178 9.32703  17
  -6   1   4 167.053 7.87921  12
  -6  -1   4 194.824 9.84508  13
  -6   1   4 183.426 9.34179  13
   6   1  -4 189.900 11.2110   1
   6  -1  -4 177.939 10.8726   1
  -6  -1   4 185.729 10.1693   3
  -6   1   4 173.976 9.89829   3
   6   1  -4 178.911 10.1614   3
   6  -1  -4 193.726 10.4267   3
  -6   1   3 8.03320 2.21312  16
  -6   1   3 7.47629 2.28582  12
  -6  -1   3 11.3752 3.16948  13
  -6   1   3 12.7947 3.04029  13
  -6  -1   3 5.49568 3.57339  17
  -6   1   3 9.67700 3.36420  17
   6   1  -3 10.0903 4.13909   1
   6  -1  -3 10.6502 4.44546   1
  -6  -1   3 11.4845 3.39291   1
  -6   1   3 5.52261 3.01396   1
  -6  -1   3 11.4918 3.43000   3
  -6   1   3 10.4885 3.10006   3
   6   1  -3 2.97305 4.49569   3
   6  -1  -3 3.95434 4.22137   3
  -6  -1   2 57.2191 4.91665  12
  -6   1   2 67.0813 4.92665  12
  -6  -1   2 75.3488 6.07549  13
  -6   1   2 72.4871 5.54485  13
  -6   1   2 69.7383 4.54698  16
  -6  -1   2 72.5686 6.17629  17
  -6   1   2 63.7758 5.72065  17
  -6  -1   2 71.6348 6.35045   1
  -6   1   2 72.3171 6.24965   1
   6   1  -2 78.9147 7.67331   1
   6  -1  -2 76.1953 7.57232   1
  -6  -1   2 70.4482 6.34707   3
  -6   1   2 63.7251 6.04398   3
   6   1  -2 71.4479 7.37355   3
   6  -1  -2 69.6611 7.16225   3
  -6  -1   1 2.63394 2.08160  12
  -6   1   1 5.22237 2.18047  12
  -6  -1   1 7.09921 3.18989  13
  -6   1   1 4.73015 2.87698  13
  -6  -1   1 0.42420 3.31517  17
  -6   1   1 0.77410 3.04459  17
  -6  -1   1 9.37998 3.47203   1
  -6   1   1 3.74922 3.29166   1
   6   1  -1 2.69753 4.69720   1
   6  -1  -1 7.40161 5.01511   1
  -6  -1   1 6.93835 3.59642   3
  -6   1   1 4.26321 3.33439   3
   6   1  -1 15.1161 5.92141   3
   6  -1  -1 15.0820 6.09105   3
  -6  -1   0 1153.38 36.7859  12
  -6   1   0 1163.26 36.5193  12
   6  -1   0 1228.73 36.9789  11
  -6  -1   0 1164.51 37.3424  17
  -6   1   0 1182.47 37.0389  17
  -6  -1   0 1142.02 38.9196   3
  -6   1   0 1134.99 38.9251   3
  -6  -1   0 1245.64 38.7605   1
  -6   1   0 1193.03 38.4875   1
   6   1   0 1164.78 41.3047   1
   6  -1   0 1132.89 41.1659   1
  -6  -1  -1 7.35839 2.92755  12
  -6   1  -1 10.3050 2.95113  12
  -6  -1  -1 12.0427 4.27704   3
  -6   1  -1 19.6587 4.92813   3
   6  -1   1 8.88951 3.08167  11
  -6  -1  -2 393.602 16.0735  12
  -6   1  -2 385.497 15.7961  12
  -6  -1  -2 375.572 18.4913   3
  -6   1  -2 372.629 18.3414   3
  -6   1  -2 396.818 17.8345  11
  -6  -1  -3 13.8118 5.77391   3
  -6   1  -3 15.3352 5.80942   3
  -6  -1  -3 13.2890 3.58904  12
  -6   1  -3 21.8551 3.82929  12
  -6  -1  -4 9.22817 5.50196   3
  -6   1  -4 0.83638 5.23004   3
  -6  -1  -4 1.56704 2.77210  12
  -6   1  -4 2.01679 2.82049  12
  -6  -1  -5 3.63951 5.96747   3
  -6   1  -5-7.25304 6.75579   3
  -6  -1  -5 6.08454 3.59526  12
  -6   1  -5 4.78330 3.15373  12
  -6  -1  -6 106.908 11.6437   3
   6  -1   6 84.2545 15.1984   2
   6   1   6 81.4038 14.7637   2
  -6   1  -6 105.374 11.4885   3
  -6  -1  -6 87.9346 7.51494  12
  -6   1  -6 78.4188 7.15230  12
   6   1   7 3.94118 12.0728   2
   6  -1   7 3.95487 12.0585   2
  -6  -1  -7-1.04553 6.85679   3
  -6   1  -7 11.4399 7.35731   3
  -6  -1  -7 6.63834 3.58029  12
  -6   1  -7-1.16193 3.20878  12
   6  -2 -13-0.82339 5.95980  15
   6  -2 -12 436.981 22.0068  15
  -6   2  12 522.615 22.0871  16
   6  -2 -12 466.619 24.3886   4
   6   2 -12 485.081 24.8783   4
   6   2 -11 16.4776 5.01105   1
   6  -2 -11 12.9423 4.81567   1
   6  -2 -11 15.7453 5.73757  15
  -6   2  11 7.88390 3.44818  16
   6  -2 -11 5.29338 6.57934   4
   6   2 -11 3.54490 6.60908   4
   6   2 -10 24.0891 5.12688   1
   6  -2 -10 25.6988 5.24775   1
   6  -2 -10 15.9437 5.38713  15
   6   2 -10 27.1185 5.81425  15
  -6   2  10 28.4375 4.80529  16
   6  -2 -10 18.4566 6.45506   4
   6   2 -10 20.0511 6.37330   4
  -6   2   9 12.1221 3.50660  16
   6  -2  -9 7.46296 3.89514  15
   6   2  -9 11.8581 4.10624  15
   6   2  -9 2.60053 3.20874   1
   6  -2  -9 10.8911 3.97193   1
   6   2  -8 301.279 14.3400  15
   6  -2  -8 283.324 14.8007  15
   6   2  -8 324.430 15.6046   1
   6  -2  -8 335.814 15.6973   1
  -6   2   8 341.008 14.9918  16
   6  -2  -7 4.23282 2.59153  13
   6   2  -7 1.94052 3.29521  15
   6  -2  -7 0.58107 3.59684  15
  -6   2   7 0.97802 2.24705  16
   6   2  -7 2.31448 3.02710   1
   6  -2  -7-2.29397 2.91330   1
   6   2  -7-0.92519 3.00606  17
   6   2  -6 13.9979 6.26791  18
   6   2  -6 6.15171 3.32551  17
   6  -2  -6 6.89408 3.05010  13
  -6   2   6 3.54491 2.25930  16
   6   2  -6 7.92172 3.54337   1
   6  -2  -6 16.2793 3.97588   1
  -6  -2   6 9.14235 3.30613   3
  -6   2   6 7.13079 3.02760   3
  -6   2   5 187.353 9.51311  16
   6   2  -5 181.939 9.74530  17
   6   2  -5 193.808 8.94664  16
  -6  -2   5 209.803 10.5568  13
   6   2  -5 188.004 11.1151   1
   6  -2  -5 183.201 11.0248   1
   6   2  -5 191.382 10.3307   3
   6  -2  -5 186.767 10.4147   3
  -6  -2   5 173.584 10.2241   3
  -6   2   5 169.474 9.95794   3
   6   2  -4 8.97311 3.17125  17
   6   2  -4 8.95387 2.18567  16
  -6   2   4 5.22074 2.02822  16
  -6  -2   4 3.17494 2.50369   6
  -6  -2   4 9.86335 3.17799  13
   6   2  -4 9.79716 4.11353   1
   6  -2  -4 9.15906 4.11727   1
  -6  -2   4 7.84310 3.04093   3
  -6   2   4 6.32567 2.95671   3
   6   2  -4 9.63042 3.90768   3
   6  -2  -4 15.3147 4.12975   3
  -6   2   3 2.99342 1.94517  16
   6   2  -3 1.03601 1.84652  12
  -6   2   3 1.11347 1.92254  12
  -6  -2   3-2.21886 2.77481  13
  -6   2   3-1.05888 2.62993  13
  -6  -2   3 3.13803 3.45583  17
  -6   2   3 0.70011 2.95289  17
   6   2  -3 1.22587 2.65526  17
   6   2  -3 4.17051 4.08088   1
   6  -2  -3-1.77769 4.09247   1
  -6  -2   3-1.70086 3.27796   1
  -6   2   3-0.84900 3.33641   1
  -6  -2   3 0.99931 2.72364   3
  -6   2   3 1.49638 2.45579   3
   6   2  -3-2.98445 4.97627   3
   6  -2  -3-1.48524 4.77568   3
  -6  -2   2 853.371 28.6834  13
  -6   2   2 815.341 27.3871  13
  -6   2   2 837.556 26.8643  12
   6   2  -2 847.810 26.5265  12
  -6  -2   2 838.922 28.6040  17
  -6   2   2 840.530 27.5395  17
  -6  -2   2 816.488 29.0887   3
  -6   2   2 856.086 29.3653   3
   6   2  -2 881.733 29.9667   3
   6  -2  -2 865.561 29.8323   3
  -6  -2   2 875.906 28.7806   1
  -6   2   2 895.674 28.8747   1
   6   2  -2 811.487 30.5928   1
   6  -2  -2 865.789 31.0313   1
  -6  -2   1 7.01800 3.28588   1
  -6   2   1 4.66643 3.40472   1
   6   2  -1 9.48279 5.80825   1
   6  -2  -1 11.4586 5.36555   1
  -6   2   1 4.48111 2.26354  12
  -6  -2   1 7.01481 3.12429  13
  -6   2   1 2.93787 2.45447  13
  -6  -2   1 2.36005 2.36192  12
  -6  -2   1 1.77431 3.37623  17
  -6   2   1 4.08914 3.10333  17
   6  -2  -1 3.73233 2.88984  11
  -6  -2   1 9.05159 3.91273   3
  -6   2   1 0.53102 3.25534   3
   6   2  -1 10.6864 5.19380   3
   6  -2  -1 3.91973 5.33429   3
   6   2   0 14.1903 6.53806   1
   6  -2   0 14.1286 6.23832   1
  -6   2   0-2.51985 4.71655   1
  -6   2   0 4.72037 3.37283  17
  -6  -2   0 4.22469 2.66836  12
  -6   2   0-0.37842 2.61401  12
  -6  -2   0 4.02603 3.52395   3
  -6   2   0-1.72275 3.17158   3
   6  -2   0 1.32116 2.83548  11
  -6  -2  -1 0.45010 2.75767  12
  -6   2  -1 0.82124 2.29665  12
  -6  -2  -1 3.16180 3.58062   3
  -6   2  -1 3.79201 3.83148   3
   6  -2   1-0.47653 2.76337  11
  -6   2  -1 2.43782 4.66731  11
  -6  -2  -2 242.561 12.0108  12
   6  -2   2 251.254 12.4574  11
  -6   2  -2 242.267 11.6356  12
  -6  -2  -2 243.587 14.2495   3
  -6   2  -2 255.203 14.3590   3
  -6   2  -2 234.070 13.6998  11
  -6  -2  -3-0.76496 4.92456   3
  -6   2  -3 0.76275 4.76932   3
  -6  -2  -3-0.50722 2.80109  12
  -6   2  -3 3.30703 2.80252  12
  -6  -2  -4 27.6535 6.64549   3
  -6   2  -4 18.3107 6.26385   3
  -6  -2  -4 12.3602 3.58909  12
  -6   2  -4 22.5830 3.99873  12
  -6  -2  -5 276.443 17.3657   3
  -6   2  -5 241.674 16.6252   3
  -6  -2  -5 282.298 13.8669  12
  -6   2  -5 260.534 13.1776  12
   6  -2   6 172.052 17.9836   2
   6   2   6 195.006 18.5309   2
  -6  -2  -6 178.300 14.4323   3
  -6   2  -6 169.908 14.3436   3
  -6  -2  -6 196.341 11.4004  12
  -6   2  -6 184.811 10.8519  12
  -6  -2  -7 7.47094 3.82041  12
  -6   2  -7 10.9277 3.70897  12
   6   2   7 6.53577 12.2346   2
   6  -2   7-10.5240 11.9785   2
  -6  -2  -7 20.8584 8.04274   3
  -6   2  -7 1.03244 6.32893   3
   6  -3 -12 9.76662 5.39242   1
   6   3 -12 12.0320 5.10513   1
   6  -3 -12 16.4655 7.47134   4
   6   3 -12 12.6984 7.53485   4
   6  -3 -12 7.11388 6.13920  15
  -6   3  12 8.38684 3.71787  16
   6   3 -11-0.77644 3.94412   1
   6  -3 -11 0.74749 3.96592   1
   6  -3 -11-8.01354 7.30158   4
   6   3 -11-4.47795 7.12750   4
   6  -3 -11 1.47620 4.97069  15
  -6   3  11 0.66522 3.11267  16
   6  -3 -10 486.752 23.6618   4
   6   3 -10 527.612 24.3144   4
   6  -3 -10 502.380 22.5919  15
   6   3 -10 571.229 23.6420   1
   6  -3 -10 607.681 23.8741   1
  -6   3  10 576.701 22.7381  16
   6  -3  -9 8.84989 5.26467   4
   6   3  -9 5.11657 5.01387   4
   6   3  -9 13.5877 4.54936   1
   6  -3  -9 10.8011 3.90183   1
  -6   3   9 8.79279 3.28943  16
   6  -3  -9 14.8889 4.89826  15
   6   3  -8 135.779 9.73721   1
   6  -3  -8 144.499 9.80189   1
  -6   3   8 149.530 9.44506  16
   6   3  -8 151.126 9.73858  17
   6   3  -8 154.664 9.30309  15
   6  -3  -8 150.627 10.3085  15
   6   3  -7 170.507 10.5585   1
   6  -3  -7 159.167 10.1472   1
  -6   3   7 157.623 9.42371  16
   6   3  -7 159.429 9.72233  17
   6  -3  -7 187.854 11.2274  15
   6   3  -7 150.488 9.17962  15
   6   3  -6 3.36843 5.95765  18
   6   3  -6 3.20752 2.25175  16
   6   3  -6-0.47845 3.27795  17
  -6   3   6 4.51954 2.52863  16
   6   3  -6 4.54557 3.29551   1
   6  -3  -6 3.93122 3.21920   1
  -6  -3   6 0.50819 2.65955   3
  -6  -3   5 13.8030 3.77126   6
   6   3  -5 23.9837 7.11556  18
   6   3  -5 10.3255 2.66650  16
   6   3  -5 14.5917 4.38961  17
  -6   3   5 6.48580 2.72162  16
  -6  -3   5 16.4857 3.77343  13
   6  -3  -5-0.56329 3.83685   1
   6   3  -5 14.7989 4.83630   1
  -6  -3   5 9.32965 3.64431   3
  -6   3   5 16.1623 3.55673   3
   6   3  -5 19.3817 4.95447   3
   6  -3  -5 8.88662 3.59342   3
  -6  -3   4 227.756 10.8544   6
  -6  -3   4 252.464 11.9761  13
   6   3  -4 247.976 10.3843  16
  -6   3   4 237.340 10.6941  16
   6   3  -4 231.917 11.4627  17
   6   3  -4 237.165 13.0846   1
   6  -3  -4 243.177 12.9591   1
  -6  -3   4 236.971 12.1469   3
  -6   3   4 251.817 12.2013   3
   6   3  -4 238.311 12.1822   3
   6  -3  -4 251.532 12.2508   3
  -6  -3   3 96.7882 6.99697  13
  -6   3   3 87.1150 5.40947  12
  -6   3   3 94.3562 6.03823  13
   6   3  -3 89.5193 5.54403  12
  -6   3   3 94.5560 5.84297  16
  -6  -3   3 86.5185 7.32536  17
   6   3  -3 94.3988 6.82724  17
  -6  -3   3 110.491 7.76744   3
  -6   3   3 108.279 7.70356   3
   6   3  -3 88.6097 7.80808   3
   6  -3  -3 102.372 8.02596   3
  -6  -3   3 100.230 7.03598   1
  -6   3   3 96.2039 6.93220   1
   6   3  -3 94.5642 8.34224   1
   6  -3  -3 99.1671 8.31599   1
   6   3  -2 54.0734 6.88720   1
   6  -3  -2 59.8918 6.96822   1
  -6  -3   2 52.3318 5.51552   1
  -6   3   2 52.7846 5.54172   1
  -6  -3   2 60.8264 5.67816  13
  -6   3   2 46.5851 4.34823  13
  -6   3   2 60.3518 4.59752  12
   6   3  -2 53.5048 4.30764  12
  -6  -3   2 43.5354 5.77487  17
  -6   3   2 52.2412 4.93022  17
   6  -3  -2 56.6180 5.74269  11
  -6  -3   2 54.0123 5.80272   3
  -6   3   2 51.2125 5.51147   3
   6   3  -2 61.6735 7.31328   3
   6  -3  -2 48.6715 6.45078   3
  -6  -3   1 58.2607 6.10108   1
  -6   3   1 61.6095 5.91149   1
   6   3  -1 45.0588 7.17336   1
   6  -3  -1 52.8791 7.56541   1
  -6  -3   1 60.8595 5.74199  13
  -6   3   1 45.2783 4.34656  12
   6   3  -1 52.1750 4.52242  12
  -6  -3   1 49.0926 5.89619  17
  -6   3   1 40.0822 4.66052  17
   6  -3  -1 51.4459 5.56605  11
  -6  -3   1 53.5545 5.96053   3
  -6   3   1 50.6448 5.72654   3
   6   3  -1 65.6976 7.57109   3
   6  -3  -1 66.9093 7.76085   3
   6  -3   0 1369.20 43.8152  11
  -6   3   0 1412.31 42.3963  12
   6   3   0 1406.18 41.7535  12
  -6  -3   0 1358.67 43.0986  12
  -6   3   0 1388.40 42.4373  17
  -6   3   0 1428.62 45.7297  11
  -6  -3   0 1364.12 44.7721   3
  -6   3   0 1429.63 45.2210   3
  -6   3  -1 418.374 18.7416  11
  -6  -3  -1 414.593 18.3194   3
  -6   3  -1 387.032 17.9689   3
  -6  -3  -1 376.663 16.1205  12
  -6   3  -1 385.322 15.5772  12
   6  -3   1 390.075 16.7618  11
  -6   3  -2 244.583 13.9657   3
  -6  -3  -2 244.741 14.4015   3
   6  -3   2 227.940 12.2376  11
  -6  -3  -2 230.040 11.9633  12
  -6   3  -2 240.416 11.5316  12
  -6  -3  -3 85.4208 9.26485   3
  -6   3  -3 107.691 9.85347   3
  -6  -3  -3 96.7834 7.52789  12
   6  -3   3 96.7233 7.95409  11
  -6   3  -3 102.517 7.25212  12
  -6  -3  -4 5.84310 5.99713   3
  -6   3  -4 0.82674 5.32287   3
  -6  -3  -4 3.89018 2.94969  12
  -6   3  -4 2.50524 2.73246  12
  -6  -3  -5 28.1186 7.68556   3
  -6   3  -5 30.4383 7.90994   3
  -6  -3  -5 22.7878 4.59137  12
  -6   3  -5 31.0896 4.73854  12
  -6  -3  -6 43.9351 6.04774  12
  -6   3  -6 52.9564 6.14840  12
  -6  -3  -6 49.8288 8.98655   3
  -6   3  -6 48.9665 9.07570   3
   6  -3   6 48.2435 12.9614   2
   6   3   6 45.3109 13.1840   2
  -6   3  -7 27.5034 4.78996  12
  -6  -3  -7 20.9776 4.99985  12
   6   3   7 45.4385 13.7887   2
   6  -3   7 22.2833 12.4440   2
  -6  -3  -7 13.5177 7.20591   3
  -6   3  -7 16.3890 7.54725   3
   6  -4 -12 171.677 13.2245  15
   6   4 -12 211.743 14.1476   1
   6  -4 -12 214.034 13.7663   1
  -6   4  12 207.490 12.7532  16
   6  -4 -12 197.622 15.4648   4
   6   4 -12 184.683 15.2986   4
   6  -4 -11 114.483 10.3441  15
   6   4 -11 135.105 10.6704   1
   6  -4 -11 131.328 10.2914   1
  -6   4  11 103.979 8.74895  16
   6  -4 -11 106.884 11.7296   4
   6   4 -11 113.132 12.0281   4
   6  -4 -10 8.58072 5.23010  15
   6   4 -10 16.0077 4.58247   1
   6  -4 -10 15.5778 4.65711   1
  -6   4  10 17.8817 4.20798  16
   6  -4 -10 18.8677 6.46040   4
   6   4 -10 15.5926 6.25594   4
   6  -4  -9 2.69883 4.04651  15
   6   4  -9-0.64493 3.12365   1
   6  -4  -9 1.26439 3.16238   1
   6   4  -9 0.63109 3.94605  17
  -6   4   9 0.59708 2.63991  16
   6  -4  -9-2.24172 5.79816   4
   6   4  -9-2.21782 5.66135   4
   6  -4  -8 32.3141 5.62639  15
   6   4  -8 35.7926 5.55327  17
  -6   4   8 34.8759 4.82095  16
   6   4  -8 42.3967 5.65108   1
   6  -4  -8 40.4093 5.42194   1
   6  -4  -7 96.5844 8.33561  15
   6   4  -7 98.8686 7.17072  15
   6   4  -7 82.3099 10.5308  18
  -6   4   7 101.247 7.46483  16
   6   4  -7 90.4500 7.55960  17
   6   4  -7 98.4024 7.88729   1
   6  -4  -7 103.139 8.06670   1
   6  -4  -6 5.07278 4.16228  15
   6   4  -6 10.8667 3.68629   1
   6  -4  -6 9.01530 3.63179   1
   6   4  -6 9.99753 6.48202  18
   6   4  -6 4.13164 3.45262  17
  -6   4   6 5.55217 2.56141  16
  -6  -4   5 73.1313 6.18418   6
  -6   4   5 73.6960 5.81500  16
   6   4  -5 81.2058 5.63178  16
   6   4  -5 76.9014 10.1197  18
   6   4  -5 81.6932 6.96003  17
  -6  -4   5 72.3974 6.39456  13
   6   4  -5 69.9082 7.02250   1
   6  -4  -5 65.0586 7.01241   1
   6   4  -5 84.1848 6.87662   3
   6  -4  -5 76.5497 6.66956   3
  -6  -4   5 87.5540 6.78475   3
  -6   4   5 80.6168 6.59647   3
  -6  -4   4 188.591 10.1692   6
  -6   4   4 203.498 9.83934  16
   6   4  -4 199.356 9.33281  16
   6   4  -4 216.996 11.0740  17
   6   4  -4 185.529 13.3861  18
  -6  -4   4 226.130 11.2888  13
  -6  -4   4 204.137 10.8598   3
  -6   4   4 204.452 10.8386   3
   6   4  -4 201.122 11.0832   3
   6  -4  -4 218.337 11.4100   3
   6   4  -4 204.975 11.9494   1
   6  -4  -4 205.448 11.8597   1
  -6  -4   3 27.8664 4.34702   1
  -6   4   3 22.2652 3.97672   1
   6   4  -3 31.2910 5.65025   1
   6  -4  -3 28.0328 5.50095   1
  -6  -4   3 23.8587 4.02726   6
  -6   4   3 30.8476 3.45850  16
   6   4  -3 25.8287 4.39239  17
   6   4  -3 27.7831 3.28685  12
  -6  -4   3 24.3753 4.23853  13
  -6   4   3 23.3577 3.11234  12
   6  -4  -3 32.9394 5.40601  11
  -6  -4   3 33.1040 4.66284   3
  -6   4   3 31.3212 4.50029   3
   6   4  -3 20.1577 5.18725   3
   6  -4  -3 20.4897 5.36779   3
  -6  -4   2 679.045 23.2472   1
  -6   4   2 650.170 23.0496   1
   6   4  -2 642.409 25.2375   1
   6  -4  -2 611.908 24.9171   1
   6   4  -2 648.923 24.2175   3
  -6  -4   2 630.872 23.5761  13
   6   4  -2 660.836 21.3292  12
  -6   4   2 623.802 21.2846  12
   6   4  -2 645.302 23.2041  17
  -6  -4   2 629.901 23.7096  17
   6  -4  -2 622.243 23.8443  11
  -6  -4   2 610.492 23.3819   3
  -6   4   2 644.749 23.7750   3
   6  -4  -2 670.570 24.6202   3
   6  -4  -1 41.5984 7.18832   1
  -6  -4   1 32.3561 4.81143   1
  -6   4   1 40.7775 5.18290   1
   6   4  -1 42.6745 7.15148   1
  -6  -4   1 37.9881 5.04885  13
   6   4  -1 27.2844 3.55060  12
  -6   4   1 32.8620 3.78596  12
  -6   4   1 41.1098 4.59419  17
  -6   4   1 26.4423 5.78976  11
   6  -4  -1 22.4899 4.72091  11
  -6  -4   1 28.9894 4.81020   3
  -6   4   1 34.0150 4.99603   3
   6   4  -1 33.6546 6.53781   3
   6  -4  -1 38.4592 6.72941   3
  -6   4   0 2.29849 2.41975  12
  -6   4   0 0.37548 3.02541  17
  -6   4   0-0.65268 4.68909  11
   6  -4   0 3.80850 3.60069  11
  -6   4   0 2.25770 3.23503   3
  -6  -4   0 3.40977 3.40874   3
  -6   4  -1 20.0941 5.49150  11
   6  -4   1 11.8604 3.94809  11
  -6  -4  -1 17.4941 4.25821   3
  -6   4  -1 8.69553 4.05125   3
  -6   4  -1 12.4600 3.19996  12
  -6  -4  -2 460.145 20.6492   3
  -6   4  -2 493.666 21.0152   3
   6  -4   2 470.190 19.5282  11
  -6   4  -2 467.290 18.0039  12
  -6  -4  -2 415.695 18.1435  12
   6  -4   3 5.55027 3.44932  11
  -6  -4  -3 4.54847 4.92628   3
  -6   4  -3-0.74976 5.17838   3
  -6   4  -3 2.37901 2.48963  12
  -6  -4  -3-0.53932 2.56869  12
  -6  -4  -4 81.3898 9.60199   3
  -6   4  -4 64.6318 8.59622   3
   6  -4   4 82.7318 7.79768  11
  -6   4  -4 77.0304 6.59781  12
  -6  -4  -4 84.6337 7.39885  12
  -6   4  -5 372.665 15.8683  12
  -6  -4  -5 345.952 16.1992  12
  -6  -4  -5 338.281 19.5588   3
  -6   4  -5 329.858 19.0338   3
   6  -4   5 319.743 22.7544   2
   6   4   5 315.156 22.4802   2
  -6   4  -6 151.501 9.81672  12
  -6  -4  -6 152.620 10.4251  12
  -6  -4  -6 154.349 13.7103   3
  -6   4  -6 147.206 12.9583   3
   6  -4   6 176.964 18.0589   2
   6   4   6 144.547 16.9780   2
  -6  -4  -7 17.3399 4.71161  12
   6   4   7 12.8615 12.0472   2
   6  -4   7 43.0545 13.8540   2
  -6  -4  -7 16.5388 8.08928   3
  -6   4  -7 24.2723 7.76223   3
   6  -5 -12 23.4957 7.09068  15
   6   5 -12 17.0834 5.25352   1
   6  -5 -12 13.1472 5.08879   1
  -6   5  12 16.5439 4.47187  16
   6  -5 -12 10.8701 7.77793   4
   6   5 -12 13.0032 7.51673   4
   6  -5 -11 11.0694 5.81721  15
   6   5 -11 16.3846 5.31986   1
   6  -5 -11 10.0585 4.72331   1
  -6   5  11 11.6856 3.90617  16
   6  -5 -11 13.6537 7.42824   4
   6   5 -11 15.5379 7.05367   4
   6  -5 -10 306.266 16.9466  15
   6   5 -10 360.496 17.1022   1
   6  -5 -10 323.750 16.6342   1
  -6   5  10 359.010 16.6831  16
   6  -5 -10 331.762 18.4341   4
   6   5 -10 318.318 17.9678   4
   6  -5  -9 247.154 14.2935  15
   6   5  -9 244.056 13.5596   1
   6  -5  -9 243.844 13.3498   1
  -6   5   9 250.880 13.2176  16
   6   5  -9 235.424 13.9089  17
   6  -5  -9 236.951 14.8769   4
   6   5  -9 251.544 14.9352   4
   6  -5  -8 72.5801 7.63348  15
  -6   5   8 66.7612 6.41257  16
   6   5  -8 60.4577 9.94378  18
   6   5  -8 66.3546 7.04744  17
   6  -5  -8 51.5528 6.27232   1
   6   5  -8 66.5650 6.82899   1
   6  -5  -7 12.4569 4.79976  15
   6   5  -7 12.5658 7.00387  18
   6   5  -7 21.6698 4.41513  17
  -6   5   7 15.1425 3.57219  16
   6   5  -7 15.1779 3.85201   1
   6  -5  -7 17.7659 4.01309   1
   6  -5  -6 21.5745 5.24074  15
   6   5  -6 18.9878 4.27277   1
   6  -5  -6 28.8606 4.89204   1
  -6   5   6 26.2042 4.00171  16
   6   5  -6 31.2482 8.26110  18
   6   5  -6 20.9804 4.64844  17
  -6   5   5 3.87191 2.40645  16
   6   5  -5 1.83254 6.58251  18
   6   5  -5 1.05132 3.38428  17
   6   5  -5 2.16550 2.16505  16
  -6  -5   5 1.91246 3.13578   6
  -6  -5   5 1.04544 2.57398  13
   6   5  -5 4.03494 3.60449   1
   6  -5  -5 1.13687 3.69401   1
  -6  -5   5 0.97439 2.36011   3
  -6   5   5 1.46178 2.43779   3
   6   5  -5-1.43657 3.14064   3
   6  -5  -5 2.83122 3.39015   3
   6   5  -4 8.38738 7.11388  18
   6   5  -4 0.50381 3.27378  17
  -6   5   4 2.68550 2.09130  16
   6   5  -4 0.67945 1.87612  16
  -6  -5   4 2.54231 2.80791  13
   6   5  -4 0.58762 3.85362   1
   6  -5  -4 2.32180 3.97585   1
  -6  -5   4-0.96909 3.05992   6
  -6  -5   4-2.88708 2.88588   3
  -6   5   4 2.89487 2.79772   3
   6   5  -4-0.97994 4.92100   3
   6  -5  -4-3.87697 4.92354   3
   6   5  -3 47.0612 5.58007  17
  -6   5   3 50.5354 4.38269  16
  -6  -5   3 35.3649 5.06709   6
   6   5  -3 58.1041 6.95166   1
   6  -5  -3 55.6689 6.60767   1
  -6   5   3 46.8407 5.15040   1
  -6  -5   3 53.7305 5.29992   1
   6   5  -3 44.9225 4.23151  12
  -6  -5   3 60.5967 5.88934  13
  -6   5   3 45.6493 4.02627  12
   6  -5  -3 47.5086 6.37414  11
  -6   5   3 59.2504 5.88124   3
  -6  -5   3 46.3577 5.22314   3
   6   5  -3 44.6579 6.23611   3
   6  -5  -3 43.7243 6.16245   3
   6   5  -2 14.5027 4.03526  17
  -6  -5   2 15.3773 4.06898   6
  -6  -5   2 15.4816 4.04836   3
  -6   5   2 17.3589 3.74851   3
   6   5  -2 19.8477 5.63052   3
   6  -5  -2 21.7620 5.72763   3
  -6   5   2 20.6314 3.12905  12
   6   5  -2 18.0898 3.16462  12
  -6  -5   2 13.9423 3.62349  13
   6  -5  -2 19.4007 4.72581  11
   6   5  -2 21.1389 5.76632   1
   6  -5  -2 17.1034 5.27389   1
  -6  -5   2 13.3951 3.55135   1
  -6   5   2 15.8583 3.89117   1
  -6  -5   1 185.812 10.1925   1
  -6   5   1 179.724 10.0593   1
   6   5  -1 177.322 12.6563   1
   6  -5  -1 166.909 12.1806   1
   6   5  -1 194.218 11.9625   3
   6  -5  -1 187.577 11.8865   3
  -6  -5   1 172.608 10.4684  13
  -6   5   1 178.133 9.00565  12
   6  -5  -1 211.297 10.0633   8
  -6   5   1 180.789 11.7463  11
   6  -5  -1 176.055 11.0993  11
  -6  -5   1 183.985 10.5204   3
  -6   5   1 177.989 10.4367   3
  -6   5   0 612.233 25.0210  11
   6  -5   0 619.250 23.9066  11
  -6  -5   0 575.317 23.1025   3
  -6   5   0 646.723 23.6456   3
  -6   5   0 575.879 21.0542  12
   6  -5   1 1.22870 2.97823  11
  -6  -5  -1 11.1516 4.10160   3
  -6   5  -1 6.73156 3.67238   3
  -6   5  -1 4.22662 2.64585  12
   6  -5   2 12.0128 4.11710  11
  -6  -5  -2 12.9881 4.84319   3
  -6   5  -2 6.06619 4.34732   3
  -6   5  -2 9.96936 3.19178  12
  -6  -5  -3 334.889 17.7891   3
  -6   5  -3 322.143 17.3543   3
   6  -5   3 380.712 17.3110  11
  -6   5  -3 337.922 14.9225  12
   6  -5   4 6.86625 3.89171  11
  -6  -5  -4 11.5643 5.84605   3
  -6   5  -4 7.25476 5.33697   3
  -6   5  -4 5.09782 2.96121  12
   6  -5   5 4.85666 10.8991   2
   6   5   5 27.4130 12.0192   2
  -6  -5  -5 6.26768 6.58144   3
  -6   5  -5 0.87113 6.26288   3
  -6   5  -5 12.2914 3.63812  12
   6  -5   6 5.02349 11.1618   2
  -6  -5  -6 2.88929 6.26012   3
  -6   5  -6 9.35080 6.61670   3
  -6   5  -6 4.45606 2.91801  12
  -6  -5  -7 75.9034 11.0237   3
  -6   5  -7 79.7422 10.8687   3
   6   5   7 101.558 16.3343   2
   6  -6 -12 16.5944 5.00163   1
   6   6 -12 8.59736 4.59560   1
   6  -6 -12 7.98112 8.04346   4
   6   6 -12 16.1433 8.65604   4
   6  -6 -11 104.036 10.5134  15
   6   6 -11 111.372 9.63668   1
   6  -6 -11 123.383 9.80075   1
  -6   6  11 113.644 9.30102  16
   6  -6 -11 98.2947 11.8400   4
   6   6 -11 92.1594 10.9446   4
   6  -6 -10 3.08632 5.01381  15
   6   6 -10-0.67308 3.41914   1
   6  -6 -10-0.66200 3.25936   1
   6   6 -10-3.97430 7.68175  18
   6   6 -10 3.94727 4.73474  17
  -6   6  10 1.32268 2.92410  16
   6  -6 -10 0.84173 5.81332   4
   6   6 -10 5.04824 6.48610   4
   6  -6  -9 18.9873 5.64760  15
   6   6  -9 17.7578 4.57821   1
   6  -6  -9 13.7304 4.36874   1
   6   6  -9 16.4119 8.29129  18
   6   6  -9 19.7093 5.14316  17
  -6   6   9 26.7512 4.65721  16
   6  -6  -9 6.90667 5.57274   4
   6   6  -9 12.1342 6.01504   4
   6  -6  -8 220.613 13.2373  15
   6   6  -8 198.961 12.5187  17
   6   6  -8 215.394 17.2315  18
  -6   6   8 223.311 12.0664  16
   6   6  -8 212.054 12.2778   1
   6  -6  -8 201.658 11.9128   1
   6  -6  -7 9.50807 4.69330  15
   6   6  -7 3.33633 7.42637  18
   6   6  -7 5.65075 3.72799  17
  -6   6   7 7.49885 3.03721  16
   6   6  -7 9.93456 3.80089   1
   6  -6  -7 1.71921 3.12810   1
   6  -6  -6-3.35990 4.40689  15
   6   6  -6 4.62378 3.06665   1
   6  -6  -6 0.56735 2.60701   1
   6   6  -6-2.09492 6.86923  18
   6   6  -6 3.52650 3.71173  17
  -6   6   6 0.97879 2.33067  16
   6   6  -5 341.018 15.9829  17
   6   6  -5 348.037 20.3692  18
  -6  -6   5 373.953 16.2670  13
   6  -6  -5 372.999 15.6664   3
  -6  -6   5 382.358 15.8771   3
  -6   6   5 360.911 15.5991   3
   6   6  -5 342.978 16.3013   1
   6  -6  -5 349.664 16.2218   1
   6   6  -4 23.0192 5.06921   1
   6  -6  -4 23.3384 4.90446   1
   6   6  -4 19.8744 7.34618  18
   6   6  -4 26.3124 4.78648  17
   6   6  -4 17.7475 3.13049  16
  -6  -6   4 28.5065 4.93364   6
  -6  -6   4 20.0849 3.90092  13
   6  -6  -4 20.8646 5.14395  11
  -6  -6   4 26.3121 4.20976   3
  -6   6   4 28.6702 4.16220   3
   6   6  -4 16.2383 5.05410   3
   6  -6  -4 26.7777 5.27205   3
   6   6  -3 100.585 7.67799  17
  -6  -6   3 94.4614 7.76112   6
  -6  -6   3 97.1384 6.95678   1
  -6   6   3 83.7461 6.54064   1
   6   6  -3 97.9482 8.54199   1
   6  -6  -3 115.541 8.83420   1
   6   6  -3 98.6484 6.14229  12
  -6  -6   3 95.9347 7.63171  13
   6  -6  -3 101.922 9.05824  11
  -6  -6   3 87.4892 7.10043   3
  -6   6   3 98.7627 7.39799   3
   6   6  -3 88.3769 8.11066   3
   6  -6  -3 96.5298 8.26532   3
   6   6  -2 69.0971 6.41646  17
  -6  -6   2 66.3852 6.54851   6
  -6  -6   2 67.3323 6.21869   3
  -6   6   2 72.8291 6.39468   3
   6   6  -2 60.0878 7.38774   3
   6  -6  -2 67.3536 7.48176   3
  -6  -6   2 76.9696 6.78708  13
   6  -6  -2 55.6725 6.95968  11
   6   6  -2 64.0789 7.81064   1
   6  -6  -2 69.5579 7.86967   1
  -6  -6   2 56.0930 5.76826   1
  -6   6   2 66.3401 5.86645   1
  -6  -6   1 18.5047 3.87686   1
  -6   6   1 21.8563 4.01064   1
   6   6  -1 18.2543 6.10073   1
   6  -6  -1 11.0823 5.98790   1
  -6  -6   1 29.8908 5.01334   6
  -6   6   1 19.1803 5.07745   9
   6  -6  -1 13.4995 3.43259   8
  -6  -6   1 18.9749 4.32734  13
  -6  -6   1 11.3741 3.48285   3
  -6   6   1 14.8090 3.75264   3
   6   6  -1 22.0542 6.02497   3
   6  -6  -1 21.7595 5.92334   3
  -6   6   1 13.2524 5.35838  11
   6  -6  -1 23.4355 5.18271  11
  -6  -6   0 88.1423 7.44058   6
   6  -6   0 91.3134 8.19453  11
  -6  -6   0 73.5689 7.01473   3
  -6   6   0 80.5653 7.06067   3
   6  -6   1 52.3245 6.55513  11
  -6  -6  -1 56.2588 6.30967   3
  -6   6  -1 44.9946 5.84504   3
   6  -6   2 6.83572 3.67903  11
  -6  -6  -2 0.67649 4.63543   3
  -6   6  -2 7.27193 4.29766   3
  -6  -6  -3 133.615 10.8104   3
  -6   6  -3 122.638 10.2798   3
   6  -6   3 115.332 9.58802  11
  -6  -6  -4 91.6729 9.92750   3
  -6   6  -4 96.5019 9.84377   3
   6  -6   4 119.276 9.65776  11
  -6   6  -4 93.8944 7.34944  12
   6  -6   5 449.200 20.2849  11
  -6   6  -5 407.010 17.5876  12
  -6  -6  -5 406.520 21.2338   3
  -6   6  -5 396.040 20.8587   3
   6  -6   5 403.022 25.1088   2
   6   6   5 382.657 24.5702   2
  -6   6  -6 2.25810 3.03726  12
   6  -6   6-4.98233 11.4466   2
   6   6   6 25.5179 12.3454   2
  -6  -6  -6 0.95278 6.89664   3
  -6   6  -6 2.74898 6.58312   3
   6  -7 -11 38.9839 7.71923  15
   6   7 -11 28.9865 9.45056  18
  -6   7  11 33.2966 5.65809  16
   6  -7 -11 27.7750 5.87794   1
   6  -7 -11 17.5739 7.66930   4
   6   7 -11 30.5786 8.43298   4
   6  -7 -10 72.0401 9.22080  15
   6   7 -10 75.7964 8.93546  17
   6   7 -10 44.7797 10.6821  18
  -6   7  10 83.6919 7.80088  16
   6   7 -10 72.9490 7.39986   1
   6  -7 -10 81.7319 8.00221   1
   6  -7 -10 77.4038 9.91661   4
   6   7 -10 73.8798 9.78638   4
   6  -7  -9 125.133 10.5193  15
   6   7  -9 133.311 14.6200  18
   6   7  -9 145.101 11.1210  17
  -6   7   9 112.529 8.83458  16
   6   7  -9 108.879 8.86913   1
   6  -7  -9 111.797 9.03660   1
   6  -7  -9 103.203 10.5435   4
   6   7  -9 111.179 10.7117   4
   6   7  -8 8.65718 4.32712  17
   6   7  -8 1.25664 7.93587  18
  -6   7   8 0.59345 2.67648  16
   6   7  -8 0.60106 3.09970   1
   6  -7  -8 1.18106 3.13369   1
   6  -7  -8 6.51675 4.74885  15
   6   7  -7 802.394 30.1184  17
   6   7  -7 761.171 35.1981  18
   6   7  -7 843.890 29.4634   1
   6  -7  -7 765.230 28.7300   1
   6  -7  -7 844.670 30.9581  15
   6   7  -6 72.4538 7.22288  17
   6   7  -6 82.1878 7.47526   1
   6  -7  -6 84.0462 7.27627   1
   6  -7  -6 92.1299 8.71688  15
   6  -7  -5 107.236 8.47000   1
   6   7  -5 122.200 9.01440   1
   6   7  -5 91.2988 11.5287  18
   6   7  -5 136.428 9.31688  17
   6  -7  -5 128.718 9.90501  15
  -6  -7   5 120.419 8.54727  13
   6  -7  -5 124.866 10.3111  11
  -6  -7   5 121.962 8.04031   3
  -6   7   5 109.748 7.80686   3
   6   7  -4 40.6777 8.68336  18
   6   7  -4 36.9623 5.30301  17
  -6  -7   4 37.2873 5.40268   6
   6   7  -4 43.2859 6.06511   1
   6  -7  -4 50.3750 6.25689   1
  -6  -7   4 47.2014 5.54650  13
   6  -7  -4 42.6267 6.41789  11
  -6  -7   4 47.2779 5.19733   3
  -6   7   4 45.5986 5.18651   3
   6   7  -3 166.135 10.3122  17
  -6  -7   3 154.346 10.3386   6
  -6  -7   3 185.300 9.59797   1
   6   7  -3 174.895 11.2076   1
   6  -7  -3 181.578 11.2781   1
  -6  -7   3 164.735 10.1955  13
   6  -7  -3 183.260 12.2750  11
  -6  -7   3 166.080 9.77831   3
  -6   7   3 176.129 9.85780   3
   6   7  -2 33.5346 5.02696  17
  -6  -7   2 30.2652 5.12714   6
   6  -7  -2 23.1855 6.16255   1
  -6  -7   2 33.4742 4.54020   1
   6   7  -2 35.8908 6.85285   1
  -6  -7   2 32.9988 5.08647  13
   6  -7  -2 29.2146 6.01820  11
  -6  -7   2 28.4219 4.36799   3
  -6   7   2 32.6764 4.59750   3
   6   7  -1 36.5494 5.15285  17
  -6  -7   1 40.1538 5.68119   6
  -6  -7   1 44.4331 5.33219   3
  -6   7   1 41.8058 5.28036   3
  -6  -7   1 38.2078 5.30027  13
   6  -7  -1 36.2098 6.25338  11
   6   7  -1 48.9201 7.49189   1
   6  -7  -1 41.1421 7.16179   1
  -6  -7   1 36.0282 4.68891   1
   6  -7   0 42.5114 6.59652  11
  -6  -7   0 26.4405 4.84060   6
  -6  -7   0 26.3355 4.77415   3
  -6   7   0 34.3661 5.13510   3
   6  -7   1 363.245 17.8953  11
  -6  -7  -1 346.586 16.5935   6
  -6  -7  -1 369.202 16.8201   3
  -6   7  -1 349.264 16.3440   3
  -6  -7  -2 59.0620 6.55925   6
  -6  -7  -2 42.1230 5.20547  10
   6  -7   2 45.3708 6.65080  11
  -6  -7  -2 58.7518 6.97457   3
  -6   7  -2 69.6344 7.43313   3
  -6  -7  -3 561.188 21.6516  10
  -6  -7  -3 553.264 24.0860   3
  -6   7  -3 552.443 23.7399   3
   6  -7   3 540.636 23.7091  11
  -6  -7  -4 40.2847 5.56385  10
  -6  -7  -4 34.7522 7.04448   3
  -6   7  -4 35.4908 7.13507   3
   6  -7   4 47.9649 6.91297  11
   6  -7   5 21.4758 12.4036   2
   6  -7   5 19.5079 5.04776  11
  -6  -7  -5 16.6719 6.73794   3
   6  -7   6-7.38912 11.7289   2
  -6   7  -6 1.14950 3.17409  12
  -6  -7  -6-0.94059 6.54922   3
  -6  -7  -6-2.69026 4.12055  10
   6   8 -11 59.5044 12.5043  18
  -6   8  11 78.5229 7.99481  16
   6  -8 -11 64.8175 9.54155  15
   6   8 -10 17.8248 5.90986  17
  -6   8  10 15.7906 4.13507  16
   6   8 -10 1.47306 8.24706  18
   6  -8 -10 14.9272 6.61082  15
   6   8  -9 86.8211 13.5628  18
   6   8  -9 113.141 10.4119  17
  -6   8   9 102.316 8.49777  16
   6  -8  -9 109.137 10.1042  15
   6   8  -8-3.05089 4.21209  17
   6   8  -8-5.29769 8.60620  18
   6  -8  -8 3.73845 5.16393  15
   6   8  -7 92.7181 12.2442  18
   6   8  -7 91.2990 8.62847  17
   6  -8  -7 91.7161 7.86112   1
   6  -8  -7 105.855 9.39170  15
   6   8  -6 3.29183 3.72782  17
   6   8  -6-2.37124 8.45259  18
   6  -8  -6 3.41329 3.89667   1
   6  -8  -6-2.80202 4.46689  15
   6  -8  -5 73.0002 7.15119   1
   6  -8  -5 79.8788 8.20003  15
   6   8  -5 62.1773 10.6202  18
   6   8  -5 67.6222 7.23160  17
  -6  -8   5 80.4651 7.21632  13
   6  -8  -5 60.4426 7.96012  11
  -6  -8   5 87.5312 6.82764   3
   6   8  -4 122.490 12.6638  18
   6   8  -4 129.376 9.43077  17
   6  -8  -4 138.225 9.64172   1
  -6  -8   4 140.259 9.28464  13
   6  -8  -4 124.722 10.7750  11
  -6  -8   4 129.233 8.36323   3
   6   8  -3 383.734 17.7082  17
  -6  -8   3 410.432 18.6098   6
   6  -8  -3 407.283 18.3414   1
  -6  -8   3 425.365 18.1435  13
   6  -8  -3 412.162 20.3991  11
  -6  -8   3 435.746 17.2067   3
   6   8  -2 130.841 8.78488  17
  -6  -8   2 103.109 8.81761   6
   6  -8  -2 118.785 9.83781   1
  -6  -8   2 119.485 8.72718  13
   6  -8  -2 101.646 9.64868  11
  -6  -8   2 103.423 7.68535   3
   6   8  -1 9.88225 3.54380  17
  -6  -8   1 9.82697 4.02195   6
  -6  -8   1 10.0467 3.39282   3
  -6  -8   1 12.5813 3.71746  13
   6  -8  -1 4.80489 3.95124  11
   6  -8  -1 13.3475 6.15504   1
   6  -8   0 1.59101 3.72246  11
  -6  -8   0 2.14975 3.32690   3
  -6  -8   0 0.66306 3.36838   6
   6  -8   1 28.2743 6.02303  11
  -6  -8  -1 27.6982 5.00252   3
  -6  -8  -1 31.1521 5.66942   6
  -6  -8  -2 3.71362 3.11591  10
  -6  -8  -2 3.47071 3.93355   6
   6  -8   2 12.5358 5.14056  11
  -6  -8  -2 9.17674 4.34046   3
   6  -8   3 89.0359 9.14498  11
  -6  -8  -3 83.0653 7.45439  10
  -6  -8  -3 79.0853 8.67774   3
  -6  -8  -3 72.2205 7.80712   6
  -6  -8  -4 46.6059 6.97261   6
   6  -8   4 64.1789 7.75477  11
  -6  -8  -4 44.8168 5.97104  10
  -6  -8  -5 410.361 18.7501  10
  -6  -8  -5 404.569 19.7137   6
   6  -8   5 407.131 20.3018  11
  -6  -8  -6 24.3906 5.26836  10
   6   9 -10 6.54336 5.54985  17
   6   9 -10 1.53823 9.71668  18
  -6   9  10 9.75414 3.99960  16
   6  -9 -10 13.6872 6.55524  15
   6   9  -9 143.825 16.5775  18
   6   9  -9 175.526 13.3248  17
   6  -9  -9 184.331 13.2232  15
   6   9  -8 4.81857 4.54839  17
   6   9  -8 1.39251 8.79427  18
   6  -9  -8 3.83963 4.94468  15
   6   9  -7 479.858 21.6055  17
   6   9  -7 422.160 25.8653  18
   6  -9  -7 497.969 21.9190  15
   6  -9  -6 9.25484 5.30507  15
   6  -9  -6-3.57654 4.47338  11
   6   9  -6-6.92391 4.15336  17
   6   9  -6-2.48899 8.23556  18
   6  -9  -5 104.776 9.28496  15
  -6  -9   5 99.7757 7.95042  13
   6   9  -5 85.2850 12.1952  18
   6   9  -5 80.8878 7.90711  17
   6  -9  -5 79.3308 9.49750  11
  -6  -9   4 82.2294 7.28222  13
   6  -9  -4 53.2513 7.88535  11
   6   9  -4 79.6977 7.60668  17
  -6  -9   3 59.6669 6.45168  13
  -6  -9   3 53.0733 6.71914   6
   6  -9  -3 48.6179 7.67314  11
   6   9  -3 53.9846 6.37162  17
  -6  -9   2 66.0340 6.85511  13
  -6  -9   2 75.5457 7.84227   6
   6  -9  -2 63.0426 8.26904  11
   6   9  -2 61.0367 6.63239  17
  -6  -9   1 3.09373 3.50375  13
   6  -9  -1 1.72816 4.52062  11
   6   9  -1 1.70615 3.22051  17
  -6  -9   1 0.71661 3.85480   6
  -6  -9   0 4.33625 4.14183   6
   6  -9   0-0.85171 4.32666  11
  -6  -9  -1 224.318 13.5746   6
   6  -9   1 232.214 14.7068  11
  -6  -9  -2 5.16459 4.23284   6
   6  -9   2 10.8806 4.96881  11
  -6  -9  -3 152.642 11.2501   6
  -6  -9  -3 150.291 10.4484  10
   6  -9   3 175.429 12.3789  11
  -6  -9  -4 67.3715 8.06235   6
  -6  -9  -4 66.9751 7.14627  10
   6  -9   4 66.6603 8.36292  11
  -6  -9  -5 38.1772 6.79422   6
   6  -9   5 48.3653 7.23182  11
  -6  -9  -5 33.8835 5.86050  10
   6  10 -10-1.94377 5.43650  17
   6  10 -10-6.40892 9.81654  18
   6 -10 -10-6.14614 6.67982  15
   6  10  -9 14.4634 5.93974  17
   6  10  -9 16.8487 9.77407  18
   6 -10  -9 12.4456 6.36478  15
   6  10  -8 6.73047 4.64790  17
   6  10  -8-5.82095 9.80110  18
   6 -10  -8 7.07025 4.86455  15
   6  10  -7 35.9223 6.30464  17
   6  10  -7 34.4591 10.4676  18
   6 -10  -7 48.6512 7.32737  15
   6 -10  -6 14.4152 5.03102  15
   6 -10  -6 5.74266 5.09047  11
   6  10  -6 21.8800 5.48391  17
   6  10  -6 11.6906 9.26737  18
   6 -10  -5 277.797 15.1885  15
   6 -10  -5 226.657 15.9952  11
   6  10  -5 236.456 18.7732  18
   6  10  -5 268.569 14.6392  17
  -6 -10   5 288.123 14.1988  13
   6 -10  -4 12.3936 5.13483  15
   6 -10  -4 2.85994 4.77357  11
   6  10  -4 9.18128 4.18741  17
  -6 -10   4 8.49531 3.64573  13
   6 -10  -3 132.887 11.9855  11
   6  10  -3 156.181 10.3955  17
  -6 -10   3 149.196 10.0352  13
  -6 -10   2 7.53295 4.21955   6
   6 -10  -2 5.61259 5.03709  11
   6  10  -2 13.3179 4.28896  17
  -6 -10   2 8.66400 3.71910  13
  -6 -10   1 11.5664 4.77672   6
   6 -10  -1 4.61084 4.82792  11
   6  10  -1 5.29950 3.90102  17
  -6 -10   1 7.62956 3.73408  13
  -6 -10   0 0.66570 3.33045  13
   6 -10   0 1.82164 5.03010  11
  -6 -10   0 5.46223 4.36439   6
   6 -10   1 9.01263 5.10888  11
  -6 -10  -1 9.47061 4.94081   6
   6 -10   2 67.7746 8.66674  11
  -6 -10  -2 50.9439 7.54032   6
   6 -10   3 90.9514 9.63000  11
  -6 -10  -3 96.9746 9.51510   6
   6 -10   4 42.2442 7.38322  11
  -6 -10  -4 22.2286 5.30588  10
  -6 -10  -4 30.7354 6.24297   6
  -6 -10  -5 205.977 13.2666  10
   6  11  -9 212.857 15.2004  17
   6  11  -9 222.860 20.6097  18
   6 -11  -9 231.297 15.2680  15
   6  11  -8-0.87051 4.74514  17
   6  11  -8-4.53373 9.54343  18
   6 -11  -8 4.00273 5.34453  15
   6  11  -7 214.364 14.1693  17
   6  11  -7 179.843 17.9715  18
   6 -11  -7 214.908 13.8145  15
   6 -11  -6 0.72673 4.93628  15
   6 -11  -6-5.12706 5.51568  11
   6  11  -6-0.75771 4.34249  17
   6  11  -6-1.35018 8.93466  18
   6 -11  -5 0.70077 4.59585  15
   6 -11  -5 1.01689 4.92538  11
   6  11  -5 1.44149 4.27566  17
   6  11  -5 1.27791 7.91025  18
  -6 -11   5 3.79017 3.62041  13
   6 -11  -4-4.10107 4.94748  15
   6 -11  -4-2.02909 5.38295  11
   6  11  -4-3.42815 4.06728  17
  -6 -11   4 1.25118 2.97932  13
   6 -11  -3 13.0518 5.62121  11
   6  11  -3 8.47836 4.20689  17
  -6 -11   3 10.0203 3.68306  13
   6 -11  -2-0.99428 5.12671  11
   6  11  -2 0.62776 3.64019  17
  -6 -11   2-2.54568 3.32948  13
  -6 -11   1 134.247 11.2525   6
   6 -11  -1 158.603 13.2158  11
   6  11  -1 142.364 9.94746  17
  -6 -11   1 155.422 10.5065  13
  -6 -11   0 87.3192 8.10387  13
   6 -11   0 65.5268 8.82463  11
  -6 -11   0 88.7306 9.28316   6
   6 -11   1 343.568 19.0837  11
  -6 -11  -1 291.497 17.2769   6
   6 -11   2 4.68656 4.90580  11
  -6 -11  -2 6.82534 5.06313   6
   6 -11   3 78.4512 9.52428  11
  -6 -11  -3 63.6599 8.73888   6
  -6 -11  -4-3.71243 4.54929  10
  -6 -11  -4-0.86529 5.13325   6
   6 -12  -9 11.1964 6.81829  15
   6  12  -8 57.6689 8.27536  17
   6  12  -8 56.0294 13.3642  18
   6 -12  -8 62.4883 8.63425  15
   6 -12  -7 59.8192 8.20235  15
   6  12  -7 63.9352 8.26348  17
   6  12  -7 53.0294 11.9690  18
   6 -12  -7 55.6871 9.08888  11
   6 -12  -6 50.3464 7.31808  15
   6 -12  -6 31.5286 7.66938  11
   6  12  -6 60.7362 7.92564  17
   6  12  -6 41.9599 11.2672  18
   6 -12  -5 107.046 11.7609  11
   6  12  -5 114.707 10.0853  17
  -6 -12   5 122.838 9.21495  13
   6 -12  -4 2.14188 5.35705  11
   6  12  -4 1.42484 4.31888  17
  -6 -12   4-0.64250 3.89504  13
   6 -12  -3 78.5959 10.5898  11
   6  12  -3 96.0704 8.69266  17
  -6 -12   3 86.6872 8.00570  13
   6 -12  -2 72.3023 9.96152  11
   6  12  -2 83.9444 8.02429  17
  -6 -12   2 88.7238 8.16630  13
   6 -12  -1 20.5906 6.61911  11
  -6 -12   1 30.7419 5.60784  13
  -6 -12   0-0.88134 4.47707   6
   6 -12   0 2.02123 5.13375  11
   6  12   0 2.46243 3.65181  17
  -6 -12   0 0.69647 3.59122  13
  -6 -12  -1 17.0706 6.11719   6
   6 -12   1 14.9850 6.26084  11
  -6 -12  -2 37.4284 7.50245   6
   6 -12   2 34.3355 7.52227  11
  -6 -12  -3 56.7476 8.51631   6
   6 -12   3 61.5575 8.64725  11
   6 -13  -7 25.4061 7.40961  11
   6  13  -7 33.0293 7.21608  17
   6  13  -7 40.8817 11.8535  18
   6 -13  -6 6.88013 6.08508  11
   6  13  -6 3.26729 4.51231  17
   6 -13  -5 10.2580 6.45910  11
   6  13  -5 10.0683 5.22254  17
   6 -13  -4-1.13103 6.24606  11
   6  13  -4 5.88523 4.78060  17
  -6 -13   4 1.31450 3.67612  13
   6 -13  -3 39.1421 8.54364  11
   6  13  -3 56.6657 7.16598  17
  -6 -13   3 45.9114 6.37347  13
   6 -13  -2 1.10083 5.50656  11
   6  13  -2-2.01425 4.15602  17
  -6 -13   2 0.66668 3.77479  13
   6 -13  -1 43.1404 8.25034  11
   6  13  -1 47.7424 6.58275  17
  -6 -13   1 53.7874 6.52929  13
   6 -13   0 153.679 13.3612  11
   6  13   0 124.828 9.67629  17
  -6 -13   0 133.427 10.4666  13
   6 -13   1 103.894 11.3502  11
  -6 -13  -1 103.261 9.28959  13
   6 -14  -7 6.07053 6.87625  11
   6 -14  -6-1.20354 6.29627  11
   6  14  -5 124.777 11.1020  17
   6 -14  -5 129.725 13.4321  11
  -6 -14   4 12.0645 4.40424  13
   6  14  -4 10.6246 4.89338  17
   6 -14  -4 7.13495 6.40229  11
  -6 -14   3 2.66947 4.25706  13
   6  14  -3 8.64892 4.41706  17
   6 -14  -3 1.16907 5.84904  11
  -6 -14   2 238.640 13.8747  13
   6  14  -2 254.865 14.3168  17
   6 -14  -2 229.175 17.4766  11
  -6 -14   1 32.5104 5.69801  13
   6  14  -1 33.7205 6.01808  17
   6 -14  -1 23.7246 7.52026  11
  -6 -14   0 1.42993 3.84585  13
   6  14   0 0.64343 3.81692  17
   6 -14   0 3.30597 5.59796  11
  -6 -14  -1 5.24361 4.59130  13
   6  15  -3 2.95114 4.47332  17
   6  15  -2 8.47149 5.15261  17
   6  15  -1 81.7576 8.34457  17
   6  15   0 194.031 12.3658  17
   7   0 -12-1.73387 4.47014   1
   7   0 -12-7.68164 8.27587   4
  -7   0  12 1.46426 3.42585  16
   7   0 -11 68.9885 8.04224  15
   7   0 -11 82.3090 8.92456   1
  -7   0  11 78.4194 7.73043  16
   7   0 -10 1.49750 3.56559   1
   7   0 -10-3.29153 5.77559   4
  -7   0  10-1.30834 3.00588  16
   7   0 -10-1.30818 3.88004  15
   7   0  -9 47.5141 6.50634   1
   7   0  -9 41.0092 6.27751  15
  -7   0   9 47.6021 6.10376  16
   7   0  -8-1.36555 3.36197   1
   7   0  -8-3.73670 3.77582  15
  -7   0   8-1.69465 3.03884  16
   7   0  -7 789.839 29.6994   1
  -7   0   7 788.647 28.0858  16
   7   0  -7 808.512 29.5345  15
   7   0  -6-3.35229 4.10802   1
  -7   0   6-2.88303 2.79348   3
  -7   0   6-1.87833 2.56055  16
  -7   0   5 287.332 12.5803  16
   7   0  -5 272.906 14.9966   1
  -7   0   5 274.323 13.8738   3
   7   0  -4-0.69551 4.12571   1
  -7   0   4-2.29712 3.29105   3
  -7   0   4 1.40203 2.54752  13
  -7   0   3 133.663 8.76417  17
  -7   0   3 132.055 7.68148  12
  -7   0   3 150.006 8.74582  13
  -7   0   3 144.494 9.61030   3
   7   0  -3 140.375 10.6108   1
  -7   0   2 1.22260 2.36312  12
  -7   0   2-1.87283 2.65104  13
  -7   0   2 1.18941 3.19880   3
   7   0  -2 3.78186 5.47467   1
  -7   0   1 121.524 7.75524  12
  -7   0   1 118.835 8.07301  13
  -7   0   1 116.425 8.95004   3
   7   0  -1 126.752 11.0736   1
  -7   0   0-0.46755 2.83445  12
  -7   0   0-0.66457 3.27196   3
  -7   0  -1 192.765 10.6719  12
  -7   0  -1 198.557 12.6040   3
  -7   0  -2 3.70513 2.96079  12
  -7   0  -2-0.78075 4.57992   3
  -7   0  -3 810.072 29.0219  12
  -7   0  -3 815.758 32.4972   3
  -7   0  -4-3.52446 3.20266  12
  -7   0  -4 0.90702 5.78406   3
  -7   0  -5 228.813 12.9073  12
  -7   0  -5 233.399 16.4167   3
   7   1 -12 13.9552 5.18659   1
   7  -1 -12 11.1458 4.92685   1
   7  -1 -12 2.89494 7.34942   4
   7   1 -12 17.2687 8.05635   4
   7  -1 -12 10.5729 5.67821  15
  -7   1  12 23.4384 5.11286  16
   7   1 -11 4.86262 4.35962   1
   7  -1 -11 11.2095 5.10597   1
   7  -1 -11 0.89439 6.07520   4
   7   1 -11-3.55037 6.75201   4
   7  -1 -11-2.84961 5.00050  15
  -7   1  11 2.08262 3.52693  16
   7   1 -10 13.5226 4.79514   1
   7  -1 -10 3.72398 3.78936   1
   7  -1 -10 3.31765 5.58965   4
   7   1 -10 2.45972 5.71277   4
  -7   1  10 12.4123 4.00792  16
   7  -1 -10 10.1829 4.65475  15
   7   1 -10 9.47171 4.64305  15
   7   1  -9 433.885 20.1539   1
   7  -1  -9 413.357 19.7495   1
  -7   1   9 465.673 19.3794  16
   7   1  -9 416.896 18.7603  15
   7  -1  -9 421.018 19.2408  15
   7   1  -8 44.4763 6.24008   1
   7  -1  -8 49.7183 6.38477   1
   7   1  -8 44.6278 5.94002  15
   7  -1  -8 39.1117 6.06484  15
  -7   1   8 35.5191 5.15579  16
   7   1  -7 617.912 25.2066   1
   7  -1  -7 616.100 25.0509   1
  -7   1   7 614.145 23.2681  16
   7  -1  -7 660.882 25.5963  15
   7   1  -6 14.6021 3.33148  17
  -7   1   6 15.4342 3.17147  16
   7   1  -6 13.4490 4.69676   1
   7  -1  -6 12.0513 4.28530   1
  -7  -1   6 12.1099 3.62474   3
  -7   1   6 15.5265 3.95629   3
  -7   1   5 275.688 12.5125  16
   7   1  -5 305.769 13.0898  17
  -7  -1   5 294.207 13.6550  13
  -7  -1   5 278.181 14.1593   3
  -7   1   5 303.481 14.4342   3
   7   1  -5 280.768 15.1298   1
   7  -1  -5 269.213 15.0143   1
  -7  -1   4 11.2359 3.32724  13
  -7   1   4 9.81571 3.26273  13
  -7  -1   4 7.46920 3.34068   3
  -7   1   4 8.03871 3.37699   3
   7   1  -4 10.4515 4.97350   1
   7  -1  -4 9.72860 4.60494   1
  -7   1   3 0.36198 2.17101  12
  -7  -1   3 1.94118 2.61035  13
  -7   1   3-0.87362 2.44294  13
  -7  -1   3 1.16574 2.91567   3
  -7   1   3-0.58215 2.91208   3
   7   1  -3-0.71741 4.39514   1
   7  -1  -3 7.87302 4.73620   1
  -7   1   2-0.39226 2.22101  12
  -7  -1   2-0.49294 2.54168  13
  -7   1   2 0.44187 2.47121  13
  -7  -1   2 0.83818 2.43012  12
  -7  -1   2-0.59477 3.06670   3
  -7   1   2-1.18800 3.06274   3
   7   1  -2 3.78867 5.01413   1
   7  -1  -2 2.26814 5.09153   1
  -7  -1   1 6.33524 2.84272  12
  -7   1   1 8.08365 2.75259  12
  -7  -1   1 12.8210 3.52340  13
  -7   1   1 15.6409 3.62598  13
  -7  -1   1 8.70677 3.69927   3
  -7   1   1 9.32778 3.97474   3
   7   1  -1 25.2444 6.87472   1
   7  -1  -1 13.8135 6.26995   1
  -7  -1   0 186.480 10.2841  12
  -7   1   0 199.647 10.2752  12
  -7  -1   0 177.984 11.6317   3
  -7   1   0 195.995 11.9140   3
  -7  -1  -1 481.477 19.3009  12
  -7   1  -1 486.220 19.0404  12
  -7  -1  -1 467.237 21.3078   3
  -7   1  -1 482.275 21.4290   3
  -7  -1  -2 0.54365 2.92438  12
  -7   1  -2 3.12142 2.94580  12
  -7  -1  -2 0.78033 4.83030   3
  -7   1  -2-0.77990 4.62640   3
  -7  -1  -3 77.7089 7.22563  12
  -7   1  -3 68.7409 6.90295  12
  -7  -1  -3 54.8461 8.33327   3
  -7   1  -3 64.9229 9.15408   3
  -7  -1  -4 16.7936 4.08941  12
  -7   1  -4 16.7382 4.06675  12
  -7  -1  -4 3.62785 6.27400   3
  -7   1  -4 7.24024 6.70524   3
  -7  -1  -5 65.9773 7.11132  12
  -7   1  -5 89.6499 7.79899  12
  -7  -1  -5 64.9238 9.84328   3
  -7   1  -5 64.7003 9.39299   3
   7  -2 -12 25.3100 8.68051   4
   7   2 -12 36.6012 8.71532   4
   7  -2 -12 22.5734 6.71169  15
   7   2 -11 104.109 11.3355   4
   7  -2 -11 120.109 11.8430   4
   7  -2 -11 129.914 10.9193  15
   7   2 -11 163.549 12.0401   1
   7  -2 -11 154.406 11.7151   1
  -7   2  11 140.836 10.2509  16
   7   2 -10 0.75269 4.10298   1
   7  -2 -10 0.74064 3.76233   1
   7  -2 -10-8.38474 6.20336   4
   7   2 -10-2.46004 5.70961   4
  -7   2  10-0.65547 3.32971  16
   7  -2 -10 0.70616 4.18892  15
   7   2  -9 1.42672 3.45505   1
   7  -2  -9-2.81815 3.78958   1
  -7   2   9-0.61174 3.50570  16
   7   2  -9 2.32996 3.53120  15
   7  -2  -9 3.43178 4.07138  15
   7   2  -8 45.9499 6.32616   1
   7  -2  -8 40.0727 5.94285   1
  -7   2   8 62.2541 6.15108  16
   7   2  -8 51.7427 6.11691  15
   7  -2  -8 53.0787 6.91064  15
   7   2  -7 552.934 23.6139   1
   7  -2  -7 597.843 24.1629   1
  -7   2   7 602.233 22.5057  16
   7  -2  -7 606.448 24.5425  15
   7   2  -6 2.79617 2.79512  17
  -7   2   6 1.40878 2.27461  16
   7   2  -6 1.34961 3.77404   1
   7  -2  -6-2.67879 4.05998   1
  -7  -2   6 0.57475 2.54134   3
  -7   2   6 2.30392 2.88131   3
  -7   2   5 393.979 16.1499  16
   7   2  -5 418.694 16.7781  17
   7   2  -5 426.031 19.3868   1
   7  -2  -5 413.004 19.1107   1
  -7  -2   5 402.583 17.8700   3
  -7   2   5 418.691 18.0228   3
  -7  -2   5 425.677 17.6979  13
   7   2  -4 364.220 15.5661  17
   7   2  -4 396.710 18.5234   1
   7  -2  -4 399.328 18.4382   1
  -7  -2   4 376.883 16.9429   3
  -7   2   4 345.718 16.4596   3
  -7  -2   4 383.716 16.3411  13
   7   2  -3-1.44064 4.45872   1
   7  -2  -3-2.14971 4.74175   1
  -7  -2   3 1.17120 3.14982   3
  -7   2   3-0.58460 3.35021   3
  -7   2   3 2.44719 2.22925  12
  -7  -2   3-1.01819 2.84717  13
   7   2  -2-3.04476 5.75097   1
   7  -2  -2-6.05795 5.48100   1
  -7  -2   2 1.78142 3.06179   3
  -7   2   2 1.18385 3.18389   3
  -7   2   2 3.45611 2.30314  12
  -7  -2   2-1.03426 2.58684  13
   7   2  -1 85.0676 9.72299   1
   7  -2  -1 80.5729 9.35006   1
  -7  -2   1 81.8719 7.50285   3
  -7   2   1 86.0852 7.59199   3
  -7  -2   1 83.8060 6.98459  13
  -7   2   1 78.2745 5.93190  12
  -7  -2   1 75.6343 6.29062  12
  -7  -2   0 3.97493 3.41590   3
  -7   2   0-1.32443 3.36389   3
  -7   2   0-0.89608 2.37714  12
  -7  -2   0 1.98834 2.78002  12
  -7  -2  -1 6.44969 4.20350   3
  -7   2  -1 2.86598 3.90565   3
  -7  -2  -1-2.65470 3.11432  12
  -7   2  -1-1.92201 3.12236  12
  -7  -2  -2 4.66915 4.30605   3
  -7   2  -2 13.2173 5.19778   3
  -7  -2  -2 12.2736 3.95606  12
  -7   2  -2 11.2522 3.45522  12
  -7  -2  -3 660.259 27.8601   3
  -7   2  -3 630.973 27.6558   3
  -7  -2  -3 624.193 24.4430  12
  -7   2  -3 639.815 24.0079  12
  -7  -2  -4 64.2425 8.97716   3
  -7   2  -4 71.0696 9.41100   3
  -7  -2  -4 72.3218 7.18133  12
  -7   2  -4 81.8175 7.15715  12
  -7  -2  -5 236.262 16.1665   3
  -7   2  -5 215.167 15.6905   3
  -7  -2  -5 221.360 13.0132  12
  -7   2  -5 209.581 12.1959  12
   7  -3 -12 53.8746 8.44321  15
   7   3 -11 34.6276 6.20944   1
   7  -3 -11 43.7562 6.98370   1
   7  -3 -11 35.6868 8.03374   4
   7   3 -11 30.4246 7.77916   4
   7  -3 -11 37.5105 7.07558  15
  -7   3  11 45.6384 6.16761  16
   7   3 -10 36.7354 5.96923   1
   7  -3 -10 32.3247 5.74332   1
   7  -3 -10 31.4567 7.38953   4
   7   3 -10 38.6796 7.55305   4
  -7   3  10 41.0822 5.48579  16
   7  -3 -10 35.2665 6.56672  15
   7   3  -9 739.053 29.2300   1
   7  -3  -9 797.410 29.5074   1
  -7   3   9 737.015 27.8548  16
   7  -3  -9 748.076 29.2739  15
   7   3  -8 79.8859 7.86556   1
   7  -3  -8 74.7016 7.57535   1
  -7   3   8 79.7184 7.00168  16
   7  -3  -8 68.1038 7.93998  15
   7   3  -7 230.734 13.1544   1
   7  -3  -7 209.059 12.8043   1
  -7   3   7 222.289 11.7921  16
   7   3  -7 221.095 11.7962  17
   7  -3  -7 237.075 13.9198  15
  -7   3   6 71.0005 6.08554  16
   7   3  -6 75.2602 6.72508  17
   7  -3  -6 67.0869 7.39458   1
   7   3  -6 67.1690 7.35198   1
  -7  -3   6 62.6949 6.34761   3
  -7   3   6 69.2370 6.70435   3
  -7   3   5 40.9381 4.51560  16
   7   3  -5 41.0673 5.09533  17
  -7  -3   5 40.8285 5.23756  13
   7   3  -5 48.0801 6.76360   1
   7  -3  -5 51.6885 6.85938   1
  -7   3   5 56.6677 6.03169   3
  -7  -3   5 52.6694 5.83800   3
   7   3  -4 30.9944 4.70477  17
  -7  -3   4 39.5571 4.82674   6
  -7  -3   4 39.2966 5.09892  13
  -7  -3   4 30.4527 4.90866   3
  -7   3   4 30.1348 4.72741   3
   7   3  -4 44.2706 6.75658   1
   7  -3  -4 37.6223 6.13827   1
  -7  -3   3 9.04217 3.23216  13
  -7  -3   3 9.35896 3.70055   3
  -7   3   3 8.74964 3.54319   3
   7   3  -3 7.96969 4.75656   1
   7  -3  -3 5.74367 4.58353   1
  -7  -3   2 96.2459 7.54974  13
  -7   3   2 99.4364 6.58498  12
  -7  -3   2 98.2098 8.06512   3
  -7   3   2 95.4947 7.85061   3
   7   3  -2 102.680 9.79829   1
   7  -3  -2 82.9587 9.35694   1
  -7  -3   1 91.3937 7.45339  13
  -7   3   1 90.0421 6.39604  12
  -7  -3   1 76.6338 7.49856   3
  -7   3   1 89.3023 7.84291   3
   7   3  -1 95.5007 10.1591   1
   7  -3  -1 71.1336 9.14161   1
  -7   3   0 54.4214 5.34192  12
  -7  -3   0 58.0446 6.75502   3
  -7   3   0 51.9822 6.53540   3
  -7   3  -1 304.204 13.7315  12
  -7  -3  -1 298.449 14.1771  12
  -7  -3  -1 287.565 15.6590   3
  -7   3  -1 282.429 15.6107   3
  -7   3  -2 8.14835 3.31249  12
  -7  -3  -2 7.41815 3.53514  12
  -7  -3  -2-0.77466 4.98909   3
  -7   3  -2 5.40658 4.83162   3
  -7  -3  -3 126.714 9.03015  12
  -7   3  -3 116.226 8.41520  12
  -7  -3  -3 114.941 11.0293   3
  -7   3  -3 117.528 11.0130   3
  -7   3  -4 51.4082 5.92797  12
  -7  -3  -4 52.2334 6.40552  12
  -7  -3  -4 53.2049 8.68693   3
  -7   3  -4 38.4149 7.84934   3
  -7   3  -5 46.5365 5.84578  12
  -7  -3  -5 56.2796 6.91097  12
  -7  -3  -5 43.3980 8.76305   3
  -7   3  -5 70.4748 9.95219   3
   7   4 -11 34.9847 6.29588   1
   7  -4 -11 48.6134 7.09955   1
   7  -4 -11 29.6883 8.28026   4
   7   4 -11 20.7654 7.26982   4
   7  -4 -11 29.4368 6.71788  15
  -7   4  11 19.9000 4.76485  16
   7   4 -10 21.6665 5.84108   1
   7  -4 -10 25.5684 5.63980   1
   7  -4 -10 20.7007 6.85918   4
   7   4 -10 19.0577 6.79284   4
  -7   4  10 32.8964 5.15658  16
   7  -4 -10 42.1227 7.17077  15
   7   4  -9 10.6854 4.23224   1
   7  -4  -9 6.99076 4.42094   1
  -7   4   9 9.43066 3.56765  16
   7  -4  -9 8.20597 4.57638  15
   7   4  -8 30.3869 5.51799   1
   7  -4  -8 27.1016 5.21304   1
   7   4  -8 27.0543 5.20766  17
  -7   4   8 28.0147 4.47849  16
   7  -4  -8 41.3642 6.83288  15
   7   4  -7 300.346 15.5724   1
   7  -4  -7 264.920 14.8133   1
  -7   4   7 301.214 14.2045  16
   7   4  -7 285.006 14.2968  17
  -7   4   6 10.7241 3.00376  16
   7   4  -6 12.3690 3.87681  17
   7   4  -6 10.9157 4.23524   1
   7  -4  -6 10.7652 4.42415   1
  -7  -4   6 18.9475 4.04280   3
  -7   4   6 10.9522 3.47213   3
  -7   4   5 339.005 14.5618  16
   7   4  -5 349.184 15.5947  17
  -7  -4   5 374.795 16.3229  13
   7   4  -5 354.261 17.3751   1
   7  -4  -5 335.148 16.9538   1
  -7  -4   5 332.649 15.7458   3
  -7   4   5 362.662 16.2182   3
  -7  -4   4 265.317 12.9803   6
   7   4  -4 273.837 13.3922  17
  -7  -4   4 302.504 14.1249  13
   7   4  -4 290.679 15.4495   1
   7  -4  -4 279.240 15.3122   1
  -7  -4   4 275.808 13.9442   3
  -7   4   4 292.803 14.1845   3
  -7  -4   3 60.6097 5.89118   6
  -7  -4   3 67.1336 6.55960  13
   7   4  -3 61.7068 6.02435  17
  -7  -4   3 59.9123 6.35286   3
  -7   4   3 60.2791 6.37334   3
   7   4  -3 64.8168 7.86745   1
   7  -4  -3 51.9752 7.17544   1
  -7  -4   2 3.53737 3.17535   3
  -7   4   2 7.03601 3.52029   3
   7   4  -2 10.8262 5.96353   1
   7  -4  -2 4.59876 5.33917   1
  -7   4   2 8.68712 2.54884  12
  -7  -4   2 3.38062 3.27120  13
  -7  -4   1 30.7350 5.20425   3
  -7   4   1 16.4938 4.37813   3
   7   4  -1 29.8836 6.88251   1
   7  -4  -1 27.9623 6.93487   1
  -7  -4   1 28.6061 4.92050  13
  -7   4   1 29.6586 3.96877  12
  -7  -4   0-1.96626 3.27855   3
  -7   4   0-0.65190 3.20959   3
  -7   4   0 0.89080 2.33008  12
  -7  -4  -1 16.2959 4.91271   3
  -7   4  -1 18.3218 5.15699   3
  -7   4  -1 15.7504 3.70514  12
  -7   4  -2 1.01558 2.69506  12
  -7  -4  -2 3.84868 4.46391   3
  -7   4  -2 2.29159 3.88087   3
   7  -4   2 4.97146 3.47614  11
   7  -4   3 141.877 10.2010  11
  -7   4  -3 139.002 9.18578  12
  -7  -4  -3 120.052 11.2745   3
  -7   4  -3 142.757 11.8871   3
  -7   4  -4 20.8235 4.34827  12
  -7  -4  -4 22.3022 4.68205  12
  -7  -4  -4 28.7437 7.30254   3
  -7   4  -4 16.8006 7.18945   3
  -7   4  -5 290.240 14.5527  12
  -7  -4  -5 274.516 14.7892  12
  -7  -4  -5 267.729 17.6409   3
  -7   4  -5 277.346 17.9338   3
   7  -5 -11 15.0604 7.29189   4
   7   5 -11 28.2945 7.81664   4
   7  -5 -11 27.2642 6.96820  15
   7   5 -11 29.6946 5.90746   1
   7  -5 -11 25.0990 5.79133   1
  -7   5  11 33.8725 5.60228  16
   7  -5 -10 132.228 12.2438   4
   7   5 -10 162.281 12.6509   4
   7   5 -10 140.971 10.8252   1
   7  -5 -10 151.892 11.1357   1
  -7   5  10 167.861 11.0083  16
   7  -5 -10 141.728 11.4501  15
   7   5  -9 478.340 21.6267   1
   7  -5  -9 476.468 21.4267   1
  -7   5   9 495.592 21.1307  16
   7  -5  -9 499.832 22.4728  15
   7   5  -8 3.46150 3.82311   1
   7  -5  -8-0.67767 3.44242   1
   7   5  -8 0.62839 3.60118  17
  -7   5   8 1.18505 2.61983  16
   7  -5  -8-1.53133 5.02122  15
   7   5  -7 32.1186 5.68388   1
   7  -5  -7 28.1772 5.55013   1
  -7   5   7 26.1590 4.20983  16
   7   5  -7 26.4066 5.11528  17
   7  -5  -7 27.5778 6.06527  15
  -7   5   6 216.782 11.5200  16
   7   5  -6 222.583 12.3342  17
   7   5  -6 235.153 13.6051   1
   7  -5  -6 235.891 13.6303   1
  -7  -5   6 233.246 12.3733   3
  -7   5   6 230.304 12.4799   3
   7   5  -5 11.6452 3.68015  17
  -7   5   5 12.5449 3.05595  16
  -7  -5   5 8.75309 3.27547  13
   7   5  -5 6.93990 4.34834   1
   7  -5  -5 13.0121 4.73806   1
  -7  -5   5 11.2767 3.64048   3
  -7   5   5 9.56660 3.52977   3
  -7  -5   4 11.2818 3.68807   6
   7   5  -4 9.21729 3.56426  17
  -7  -5   4 9.75584 3.45064  13
   7   5  -4 8.49466 4.06425   1
   7  -5  -4 12.6005 4.88038   1
  -7  -5   4 6.76516 3.16261   3
  -7   5   4 9.58261 3.42613   3
  -7  -5   3 11.4302 3.92120   6
   7   5  -3 6.99479 3.37723  17
  -7  -5   3 8.07838 3.51047  13
  -7  -5   3 13.5952 3.78065   3
  -7   5   3 11.1924 3.62092   3
   7   5  -3 11.7296 4.59332   1
   7  -5  -3 24.6782 5.81947   1
  -7  -5   2 292.816 14.6033  13
  -7   5   2 312.945 12.8589  12
  -7  -5   2 287.256 14.2801   6
  -7  -5   2 308.188 15.0070   3
  -7   5   2 308.365 14.8249   3
   7   5  -2 313.323 17.0333   1
   7  -5  -2 276.885 16.2915   1
  -7  -5   1 2.44020 3.45471   3
  -7   5   1-1.20921 3.33934   3
   7   5  -1 14.2364 6.37047   1
   7  -5  -1 4.96896 5.99459   1
  -7  -5   1 1.82003 3.03534  13
  -7   5   1 2.89941 2.34605  12
  -7  -5   0 53.9351 6.60909   3
  -7   5   0 55.9550 6.54563   3
  -7   5   0 75.5623 6.05459  12
  -7  -5  -1 253.424 14.4388   3
  -7   5  -1 265.710 14.4890   3
   7  -5   1 249.801 13.7325  11
  -7   5  -1 250.877 12.3690  12
   7  -5   2 5.27849 3.69187  11
  -7  -5  -2 9.17179 5.27991   3
  -7   5  -2 3.01277 4.51867   3
  -7   5  -2 3.05607 2.74209  12
  -7  -5  -3 78.7086 9.54994   3
  -7   5  -3 86.9352 9.62163   3
  -7   5  -3 96.9007 7.64411  12
   7  -5   3 99.2418 8.74207  11
  -7  -5  -4 34.7970 7.59942   3
  -7   5  -4 29.6118 7.17575   3
  -7   5  -4 21.9993 4.57003  12
   7  -5   5 29.4591 14.4061   2
   7   5   5-1.31822 12.6098   2
  -7  -5  -5 2.85409 6.12699   3
  -7   5  -5 8.33589 6.45135   3
   7  -6 -11-4.77839 7.83693   4
   7   6 -11-1.84444 6.62509   4
   7  -6 -11-6.86785 6.66134  15
   7   6 -11 0.76572 3.94819   1
   7  -6 -11 1.50136 4.09198   1
   7   6 -11-1.38157 8.28587  18
  -7   6  11 2.92536 3.48262  16
   7  -6 -10 34.6382 8.25287   4
   7   6 -10 28.7518 7.15559   4
   7   6 -10 30.7744 6.11561   1
   7  -6 -10 33.0790 6.20339   1
   7   6 -10 46.8693 10.4330  18
  -7   6  10 46.9657 6.11816  16
   7  -6 -10 31.4326 7.11573  15
   7  -6  -9 1.38556 3.77704   1
   7   6  -9-3.53562 4.37761  17
  -7   6   9 2.59350 2.98002  16
   7  -6  -9 4.82456 4.87515  15
   7   6  -8 0.69288 3.51966   1
   7  -6  -8 2.03341 3.69473   1
   7   6  -8 0.66791 3.78181  17
  -7   6   8-0.60364 2.55993  16
   7  -6  -8-0.79104 4.79548  15
   7   6  -7 45.2270 6.55817   1
   7  -6  -7 70.5039 7.61284   1
  -7   6   7 69.5439 6.47654  16
   7   6  -7 49.1034 6.35700  17
   7  -6  -7 52.6756 7.50901  15
  -7   6   6 86.0421 6.87547  16
   7   6  -6 79.8927 7.58047  17
   7  -6  -6 100.155 9.57473  15
   7  -6  -6 79.6885 8.17362   1
   7   6  -6 79.0716 8.06229   1
  -7  -6   6 91.3907 7.64413   3
  -7   6   6 87.3257 7.60024   3
   7   6  -5 197.518 11.8633  17
  -7   6   5 215.296 11.0749  16
  -7  -6   5 240.617 12.8287  13
   7   6  -5 229.681 13.5979   1
   7  -6  -5 233.862 13.4912   1
  -7  -6   5 236.894 12.4270   3
  -7   6   5 223.357 12.2503   3
  -7  -6   4 401.918 18.1707   6
   7   6  -4 439.257 18.5737  17
  -7  -6   4 409.444 18.2768  13
   7   6  -4 448.275 20.2381   1
   7  -6  -4 410.895 19.6134   1
  -7  -6   4 461.800 18.6159   3
  -7   6   4 415.199 18.0118   3
  -7  -6   3 4.75174 3.36645   6
   7   6  -3 6.18719 3.65804  17
  -7  -6   3 10.7640 3.88874  13
  -7  -6   3 4.06629 3.33235   3
  -7   6   3 6.94740 3.51295   3
   7   6  -3 4.43811 4.80884   1
   7  -6  -3 1.46034 4.65838   1
  -7  -6   2 28.5577 4.95171  13
  -7  -6   2 21.5181 4.42451   3
  -7   6   2 16.7205 4.14323   3
  -7  -6   2 25.9240 4.82608   6
   7   6  -2 10.9964 5.95699   1
   7  -6  -2 9.32190 5.81141   1
  -7  -6   1 62.2049 6.75894  13
  -7   6   1 58.9930 5.42806  12
  -7  -6   1 68.3156 6.81903   3
  -7   6   1 57.9395 6.48916   3
   7   6  -1 72.6700 9.77005   1
   7  -6  -1 57.5579 8.76189   1
  -7  -6   1 70.5811 7.18536   6
  -7   6   0 10.8333 3.17754  12
  -7  -6   0 9.64233 3.77844   3
  -7   6   0 8.22683 4.15726   3
   7  -6   0 6.79895 3.99546  11
  -7  -6   0 9.68954 3.88184   6
   7  -6   1 4.17135 3.88817  11
  -7   6  -1-0.48337 2.66934  12
  -7   6  -1 2.04189 3.85384   3
  -7  -6  -1-1.38749 3.73156   3
   7  -6   2 48.7805 6.55880  11
  -7  -6  -2 50.6375 7.15332   3
  -7   6  -2 45.0610 6.74841   3
  -7   6  -2 47.2457 5.46292  12
  -7  -6  -3 150.861 12.1866   3
  -7   6  -3 157.108 11.8495   3
   7  -6   3 164.499 11.3326  11
  -7   6  -3 147.381 9.60914  12
  -7  -6  -4 145.808 12.8833   3
  -7   6  -4 164.012 12.7054   3
   7  -6   4 174.472 12.1845  11
  -7   6  -4 160.913 10.1936  12
  -7  -6  -5 26.3687 7.83029   3
  -7   6  -5 39.9359 8.39941   3
   7  -6   5 47.7788 14.8779   2
   7   6   5 61.2400 15.1870   2
   7   7 -11 24.7509 10.6366  18
   7  -7 -10 120.878 11.2673  15
   7  -7 -10 109.743 9.71498   1
  -7   7  10 97.4981 8.75598  16
   7   7 -10 95.8765 13.7583  18
   7   7 -10 104.920 10.1072  17
   7   7 -10 93.0681 10.4350   4
   7  -7 -10 100.636 11.3137   4
   7  -7  -9 22.4529 6.67999  15
   7   7  -9 12.1383 8.61642  18
   7   7  -9 20.3763 5.64809  17
  -7   7   9 19.7862 4.27889  16
   7   7  -9 16.8486 4.50785   1
   7  -7  -9 26.9263 5.52022   1
   7  -7  -8 192.137 13.2404  15
   7   7  -8 172.118 11.7539  17
   7   7  -8 174.407 16.3634  18
  -7   7   8 165.594 10.7555  16
   7   7  -8 191.569 12.1045   1
   7  -7  -8 153.664 11.0085   1
   7   7  -7 89.6803 8.64744  17
  -7   7   7 100.294 7.91425  16
   7   7  -7 87.1122 8.65719   1
   7  -7  -7 87.2962 8.49124   1
   7  -7  -6 119.557 10.6413  15
   7   7  -6 86.8478 8.06736  17
  -7   7   6 96.5934 7.42370  16
   7   7  -6 92.7338 8.75279   1
   7  -7  -6 97.2380 8.86180   1
   7   7  -5-4.18097 4.81261   1
   7  -7  -5 1.37419 4.33904   1
  -7  -7   5 0.62281 3.01660  13
   7   7  -5-3.08709 3.58021  17
  -7  -7   5-1.10690 2.97699   3
  -7   7   5 0.55362 2.89629   3
  -7  -7   4 3.85279 3.59246   6
   7   7  -4-1.42074 4.30749   1
   7  -7  -4 7.02605 4.60862   1
  -7  -7   4 4.91654 3.64678  13
   7   7  -4 8.39239 3.96791  17
  -7  -7   4 0.55040 3.04092   3
  -7   7   4 3.86120 3.58559   3
  -7  -7   3 48.3480 6.38395   6
   7   7  -3 74.9620 8.76487   1
   7  -7  -3 61.0292 8.15921   1
  -7  -7   3 60.0462 6.83985  13
   7   7  -3 59.3647 6.49435  17
  -7  -7   3 68.5143 6.67384   3
  -7   7   3 72.7088 6.70566   3
  -7  -7   2 184.032 11.9028   6
   7   7  -2 203.005 14.0039   1
   7  -7  -2 236.607 14.6699   1
  -7  -7   2 218.299 12.5448  13
   7   7  -2 201.473 11.7765  17
  -7  -7   2 205.400 11.7569   3
  -7   7   2 199.300 11.5009   3
  -7   7   1 15.3017 3.34834  12
  -7  -7   1 11.7000 4.20738  13
  -7  -7   1 18.5364 4.41396   3
  -7   7   1 21.1834 4.76069   3
   7  -7  -1 20.1497 5.21470  11
  -7  -7   1 15.8811 4.70159   6
  -7   7   0 61.8847 5.82333  12
  -7  -7   0 62.1525 7.10716   3
  -7   7   0 73.8086 7.23555   3
   7  -7   0 64.7260 7.64324  11
  -7  -7   0 69.1731 7.49962   6
  -7   7  -1 100.023 7.38837  12
  -7  -7  -1 107.449 9.04124   3
  -7   7  -1 112.479 8.96993   3
   7  -7   1 90.8800 8.98842  11
  -7  -7  -1 92.3617 8.58147   6
  -7   7  -2 18.2080 4.04045  12
  -7  -7  -2 24.5867 5.65048   3
  -7   7  -2 15.8352 4.95465   3
   7  -7   2 13.5190 4.90511  11
  -7  -7  -2 23.1847 5.22806   6
  -7   7  -3 66.4227 6.62377  12
  -7  -7  -3 82.5126 9.10462   3
   7  -7   3 71.2977 8.04393  11
  -7   7  -4 22.4039 4.64586  12
   7  -7   4 27.5303 6.01873  11
  -7  -7  -4 26.1635 7.26368   3
  -7  -7  -5 3.98639 4.31927  10
  -7  -7  -5 2.78964 6.63060   3
   7   8 -10 29.5337 11.0208  18
   7   8 -10 20.4995 6.12187  17
  -7   8  10 28.4576 5.26357  16
   7  -8 -10 17.7221 7.03657  15
   7   8  -9 1.41695 8.12019  18
  -7   8   9 0.67064 3.02391  16
   7   8  -9-1.59372 4.72689  17
   7  -8  -9 4.28378 5.41040  15
  -7   8   8 7.52589 3.46972  16
   7   8  -8 12.1317 8.84240  18
   7   8  -8 3.73262 3.91104  17
   7  -8  -8 18.3723 6.31291  15
   7   8  -7 10.1917 8.04638  18
   7   8  -7 4.25252 4.11237  17
  -7   8   7 4.65909 2.91691  16
   7  -8  -7 9.00367 5.51417  15
   7   8  -6 119.737 9.68371  17
  -7   8   6 110.530 8.17299  16
   7  -8  -6 102.700 10.0832  15
  -7  -8   5 35.3235 5.53185  13
   7   8  -5 36.9658 5.70087  17
  -7  -8   5 37.1397 5.20125   3
  -7  -8   4 373.926 16.9163  13
  -7  -8   4 311.616 16.5523   6
   7   8  -4 331.231 16.2229  17
  -7  -8   4 350.665 15.8383   3
  -7  -8   3 31.9973 5.44956  13
  -7  -8   3 25.3029 5.43400   6
   7   8  -3 28.7538 5.21433  17
  -7  -8   3 27.2153 4.96775   3
   7   8  -2 46.7373 5.98700  17
  -7  -8   2 46.7807 6.31629  13
  -7  -8   2 38.9100 6.20103   6
   7  -8  -2 44.1432 7.06184  11
  -7  -8   2 38.4084 5.59813   3
  -7  -8   1 0.67016 3.45564  13
  -7  -8   1 5.72563 4.38485   6
   7  -8  -1 4.05463 4.36198  11
  -7  -8   1-1.17684 3.52919   3
  -7  -8   0 51.0567 6.77382  13
  -7  -8   0 68.7913 7.77645   6
  -7  -8   0 74.7796 7.55087   3
   7  -8   0 55.4458 7.72764  11
   7  -8   1-2.39500 4.68290  11
  -7  -8  -1-0.73892 4.23479   6
   7  -8   2 79.0714 8.76029  11
  -7  -8  -2 80.7854 8.36541   6
   7  -8   3 20.2317 5.69520  11
  -7  -8  -3 12.3720 4.94817   6
   7  -8   4 120.793 10.6362  11
   7   9 -10 111.118 15.9054  18
   7   9 -10 132.115 11.7665  17
  -7   9   9 8.86342 4.00266  16
   7   9  -9 4.18964 4.86164  17
   7   9  -9-4.43650 9.78727  18
   7  -9  -9 10.5460 6.26764  15
   7   9  -8 77.4963 8.49387  17
   7   9  -8 53.5032 11.8991  18
  -7   9   8 68.9176 7.10175  16
   7  -9  -8 83.3657 9.61591  15
   7   9  -7-2.65494 8.46472  18
   7   9  -7-0.74242 4.30496  17
   7  -9  -7 4.15054 5.34390  15
   7   9  -6 43.1572 6.48559  17
   7  -9  -6 45.5468 7.76696  15
  -7  -9   5 13.2170 4.26623  13
   7   9  -5 12.8624 4.32853  17
   7  -9  -5 8.81398 5.63292  15
   7   9  -4 5.23213 4.04923  17
  -7  -9   4 1.96340 3.37565  13
  -7  -9   3 63.6919 7.80244   6
   7   9  -3 45.1744 6.22629  17
  -7  -9   3 57.9812 6.86982  13
  -7  -9   2 61.8179 7.66414   6
   7  -9  -2 62.3482 8.43592  11
   7   9  -2 83.3653 7.71646  17
  -7  -9   2 79.6459 7.72492  13
  -7  -9   1 22.0105 4.82724  13
  -7  -9   1 22.3276 5.60545   6
   7  -9  -1 25.1734 6.26521  11
  -7  -9   0 138.139 10.5036  13
   7  -9   0 127.813 11.1428  11
  -7  -9   0 139.681 10.9938   6
   7  -9   1 5.97839 4.59598  11
  -7  -9  -1 4.70504 4.70514   6
   7  -9   2 33.9574 6.44284  11
  -7  -9  -2 15.9891 5.23060   6
   7  -9   3 4.26693 4.65183  11
  -7  -9  -3-4.06535 4.82304   6
   7  10  -9 38.5112 7.23222  17
   7  10  -9 27.6667 11.5670  18
  -7  10   9 29.6439 5.28376  16
   7 -10  -9 40.3249 8.28269  15
   7  10  -8-4.93174 5.03596  17
   7  10  -8-1.45952 9.39596  18
   7 -10  -8 3.45822 5.77214  15
   7  10  -7 61.3998 7.93726  17
   7  10  -7 61.9112 11.8600  18
   7 -10  -7 73.7388 9.08972  15
   7  10  -6 56.7703 7.12036  17
   7  10  -6 50.5274 10.9113  18
   7 -10  -6 60.3984 8.45724  15
  -7 -10   5 1.35814 3.44954  13
   7  10  -5 1.41399 4.05161  17
   7 -10  -5-1.59879 5.69909  15
   7  10  -4 273.983 15.1247  17
  -7 -10   4 304.894 15.5533  13
  -7 -10   3 7.13637 4.80750   6
   7 -10  -3 2.85514 4.61005  11
   7  10  -3 2.63655 3.82274  17
  -7 -10   3 0.67643 4.05749  13
  -7 -10   2 117.093 10.3870   6
   7 -10  -2 103.016 10.7918  11
   7  10  -2 98.1459 8.65663  17
  -7 -10   2 115.504 9.35804  13
  -7 -10   1 11.2977 4.61402  13
  -7 -10   1 25.6175 5.77434   6
   7 -10  -1 24.1227 6.88137  11
  -7 -10   0 37.6163 6.25835  13
   7 -10   0 50.3438 7.84735  11
  -7 -10   0 45.1903 7.56070   6
   7 -10   1 17.1533 5.76404  11
  -7 -10  -1 6.74954 4.72727   6
   7 -10   2 5.38181 5.20123  11
  -7 -10  -2-1.69845 4.80852   6
   7 -11  -8 110.014 11.0039  15
   7  11  -8 108.077 15.4098  18
   7  11  -8 110.626 10.5850  17
   7 -11  -7 37.0299 7.46597  15
   7  11  -7 33.1495 6.88680  17
   7  11  -7 42.5908 11.4081  18
   7 -11  -6 10.6092 5.78367  15
   7  11  -6 14.5596 4.99162  17
   7  11  -6 14.7699 8.14735  18
   7 -11  -5 68.2903 8.68359  15
   7  11  -5 81.3871 8.26011  17
  -7 -11   5 74.4691 7.74388  13
   7 -11  -4 22.5056 6.26303  15
   7  11  -4 11.9663 4.63110  17
  -7 -11   4 11.7235 4.53773  13
   7 -11  -3 2.01996 5.20950  11
   7  11  -3 10.9110 4.51479  17
  -7 -11   3 3.46469 3.72985  13
  -7 -11   2 98.5627 10.1703   6
   7 -11  -2 120.993 11.6760  11
   7  11  -2 110.369 9.25974  17
  -7 -11   2 117.738 9.56272  13
  -7 -11   1 7.23642 4.05441  13
  -7 -11   1 7.89467 5.26651   6
   7 -11  -1 15.6866 6.13512  11
  -7 -11   0 99.4842 9.23212  13
  -7 -11   0 83.8693 9.64172   6
  -7 -11  -1 89.3010 9.28981  13
   7 -11   1 99.5829 10.6127  11
  -7 -11  -1 84.6107 9.71686   6
   7 -12  -7 48.0115 8.27949  15
   7  12  -7 39.4729 11.6959  18
   7 -12  -6 247.340 15.3050  15
   7  12  -6 203.183 13.6619  17
   7  12  -5 85.7327 8.91264  17
  -7 -12   5 93.6691 8.74605  13
   7 -12  -4 147.551 13.7512  11
   7  12  -4 172.365 11.9989  17
  -7 -12   4 175.749 11.6266  13
   7 -12  -3 5.31000 5.63508  11
   7  12  -3 8.43118 4.60821  17
  -7 -12   3-1.41620 4.15409  13
   7 -12  -2 27.1702 7.47961  11
   7  12  -2 19.1368 5.13552  17
  -7 -12   2 31.6994 5.84177  13
   7 -12  -1 19.4851 6.69245  11
  -7 -12   1 20.2378 6.33106   6
  -7 -12   1 28.7827 5.72269  13
   7 -12   0 5.06521 5.94218  11
  -7 -12   0-3.74861 5.10853   6
  -7 -12   0 3.06023 3.94487  13
  -7 -13   5 7.21543 4.33158  13
  -7 -13   4 13.6773 4.56583  13
   7  13  -4 18.7140 5.51493  17
   7 -13  -4 18.0807 7.42301  11
  -7 -13   3-0.72115 4.03319  13
   7  13  -3 4.33477 4.47200  17
   7 -13  -3-1.11119 5.81314  11
  -7 -13   2 85.0736 8.69419  13
   7  13  -2 69.9832 7.82002  17
   7 -13  -2 76.3669 10.3630  11
  -7 -13   1 6.75369 4.50433  13
   7 -13  -1 7.50786 6.14929  11
   8   0 -11-1.46147 4.47696  15
   8   0 -10 16.4632 5.41945  15
  -8   0  10 15.1229 4.39746  16
   8   0 -10 8.18216 5.12824   1
   8   0  -9 0.71461 4.51274  15
  -8   0   9 0.64208 3.16123  16
   8   0  -9-1.59111 4.10199   1
   8   0  -8 35.6543 6.50334  15
   8   0  -8 35.9289 6.36289   1
  -8   0   7-2.65276 3.56768   3
   8   0  -7-1.56094 4.57831   1
  -8   0   6 405.495 18.6276   3
   8   0  -6 416.736 20.2854   1
  -8   0   5-1.07135 3.03356  13
  -8   0   5-1.29111 3.82977   3
   8   0  -5-5.61369 5.53890   1
  -8   0   4 479.741 18.9819  13
  -8   0   4 455.519 20.2056   3
   8   0  -4 422.221 21.1262   1
  -8   0   3-1.56349 3.09196  13
  -8   0   3-3.35545 4.11173   3
   8   0  -3 0.85171 5.83409   1
  -8   0   2 50.2564 5.49403  12
  -8   0   2 56.4183 6.81934   3
   8   0  -2 62.8316 9.12869   1
  -8   0   1-0.51717 2.85598  12
  -8   0   1-2.11909 3.69531   3
   8   0  -1 7.65488 7.17960   1
  -8   0   0 2.73551 3.09964  12
  -8   0   0 7.47120 4.33357   3
  -8   0  -1 2.31313 3.35426  12
  -8   0  -1 4.77644 4.45294   3
  -8   0  -2 8.48598 3.79566  12
  -8   0  -2 6.82009 4.65163   3
  -8   0  -3-1.90311 3.59189  12
  -8   0  -3 2.72986 5.08905   3
   8  -1 -11 4.55576 5.15728  15
  -8   1  11-1.46041 3.47720  16
   8   1 -10 44.3711 7.20369   1
   8  -1 -10 39.8931 6.91791   1
   8   1 -10 45.2883 6.76464  15
   8  -1 -10 45.6036 7.23487  15
  -8   1  10 36.4058 5.64212  16
   8   1  -9 88.5117 8.79366   1
   8  -1  -9 92.8098 9.02740   1
  -8   1   9 73.1579 7.23858  16
   8   1  -9 76.4079 8.07153  15
   8  -1  -9 88.1100 8.90444  15
   8   1  -8 228.598 14.5243   1
   8  -1  -8 231.461 14.4873   1
  -8   1   8 234.352 12.6687  16
   8   1  -8 244.037 14.1699  15
   8  -1  -8 252.037 14.9332  15
  -8   1   7-0.54236 2.79651  16
  -8  -1   7 3.97939 3.46966   3
  -8   1   7 1.32710 3.21383   3
   8   1  -7-5.48022 5.03992   1
   8  -1  -7-1.55815 4.51752   1
  -8   1   6 97.7114 8.43433   3
   8   1  -6 87.6926 9.40558   1
   8  -1  -6 84.9595 9.31693   1
  -8  -1   5 27.3367 4.61564  13
  -8  -1   5 22.6051 4.64491   3
  -8   1   5 27.7568 5.04598   3
   8   1  -5 16.0811 5.80851   1
   8  -1  -5 17.6223 6.24544   1
  -8  -1   4 138.200 9.09476  13
  -8  -1   4 150.023 10.4091   3
  -8   1   4 129.418 9.70562   3
   8   1  -4 118.835 10.7545   1
   8  -1  -4 138.148 11.3452   1
  -8  -1   3 3.82487 3.45060  13
  -8  -1   3 2.01377 3.70689   3
  -8   1   3-2.01181 4.06541   3
   8   1  -3 3.41224 5.74487   1
   8  -1  -3-12.7662 6.47402   1
  -8   1   2 534.523 20.3555  12
  -8  -1   2 523.783 21.2444  13
  -8  -1   2 507.915 20.3344  12
  -8  -1   2 542.405 22.6639   3
  -8   1   2 590.849 23.2493   3
   8   1  -2 522.848 25.0324   1
   8  -1  -2 518.572 25.1312   1
  -8   1   1 18.5838 4.03949  12
  -8  -1   1 19.5562 4.55809  13
  -8  -1   1 25.8672 4.49104  12
  -8  -1   1 20.4750 5.29282   3
  -8   1   1 19.0564 5.06538   3
   8   1  -1 38.3485 8.28347   1
   8  -1  -1 27.7416 8.04604   1
  -8  -1   0 108.249 8.26665  12
  -8   1   0 107.569 8.00791  12
  -8  -1   0 99.8306 8.30336  13
  -8  -1   0 102.278 9.37434   3
  -8   1   0 106.756 9.39749   3
  -8  -1  -1 0.59211 3.18486  12
  -8   1  -1 0.56603 3.16563  12
  -8   1  -1 0.79541 4.04047   3
  -8  -1  -1-0.79547 4.22048   3
  -8  -1  -2 0.62440 3.53547  12
  -8   1  -2-0.59403 3.23814  12
  -8  -1  -2 4.26072 4.99837   3
  -8   1  -2 1.70306 4.45476   3
  -8  -1  -3 39.6581 6.04712  12
  -8   1  -3 44.1206 5.86674  12
  -8  -1  -3 43.6455 7.70641   3
  -8   1  -3 38.1542 7.65736   3
   8  -2 -11 0.79111 4.69274  15
  -8   2  11-0.73101 3.71334  16
   8   2 -10-0.82277 4.48503   1
   8  -2 -10-2.43378 4.97020   1
  -8   2  10 0.68790 3.49452  16
   8  -2 -10-3.11735 4.57137  15
   8   2  -9 27.1743 6.02750   1
   8  -2  -9 16.6022 5.02914   1
   8  -2  -9 25.7409 6.04361  15
  -8   2   9 24.4224 4.95893  16
   8   2  -8 103.718 9.54245   1
   8  -2  -8 102.658 9.69850   1
  -8   2   8 92.0789 7.72184  16
   8   2  -8 81.3648 8.18523  15
   8  -2  -8 93.5540 9.49425  15
  -8   2   7 19.0140 3.88738  16
  -8  -2   7 31.1632 5.34144   3
  -8   2   7 25.2070 5.21343   3
   8   2  -7 19.6519 5.92710   1
   8  -2  -7 17.9079 5.40909   1
  -8  -2   6 694.969 26.3065   3
  -8   2   6 671.016 26.0445   3
   8   2  -6 634.032 27.4460   1
   8  -2  -6 672.559 27.6518   1
  -8  -2   5 5.80424 3.44380  13
  -8  -2   5 3.22929 3.56737   3
  -8   2   5 0.64522 3.56386   3
   8   2  -5 1.61279 5.14256   1
   8  -2  -5 2.40143 4.80136   1
  -8  -2   4 444.629 18.6699  13
  -8  -2   4 442.643 19.5078   3
  -8   2   4 425.495 19.3031   3
   8   2  -4 451.596 21.4954   1
   8  -2  -4 414.325 20.7260   1
  -8  -2   3-0.57146 3.38981  13
  -8  -2   3 4.02363 3.79703   3
  -8   2   3-0.66914 3.74222   3
   8   2  -3-1.71151 5.91018   1
   8  -2  -3-3.40512 6.47549   1
  -8  -2   2 26.7378 4.81699  13
  -8  -2   2 22.3926 4.96047   3
  -8   2   2 29.8267 5.47241   3
   8   2  -2 33.4270 8.29286   1
   8  -2  -2 22.4685 7.14220   1
  -8   2   1 2.95493 2.95461  12
  -8  -2   1 3.01165 3.06061  13
  -8  -2   1 1.40860 3.73752   3
  -8   2   1 2.81618 3.83850   3
   8   2  -1 8.66578 6.86488   1
   8  -2  -1 0.95797 6.28276   1
  -8  -2   0 119.104 9.22345  13
  -8   2   0 135.021 8.90993  12
  -8  -2   0 121.480 8.84632  12
  -8  -2   0 110.174 9.87517   3
  -8   2   0 139.868 10.7112   3
  -8   2  -1 12.2292 3.72766  12
  -8  -2  -1 17.5130 4.44972  12
  -8  -2  -1 10.3015 5.16119   3
  -8   2  -1 12.6813 5.44019   3
  -8   2  -2 0.58340 3.18039  12
  -8  -2  -2 1.27014 3.63963  12
  -8  -2  -2 0.84994 4.87095   3
  -8   2  -2 5.09296 4.68762   3
  -8   2  -3 31.1338 5.39134  12
  -8  -2  -3 38.5371 6.05818  12
  -8  -2  -3 32.6696 7.14343   3
  -8   2  -3 33.4608 7.38366   3
   8   3 -10 106.845 10.2616   1
   8  -3 -10 89.5757 9.24637   1
  -8   3  10 116.589 9.25932  16
   8  -3 -10 104.913 10.3385  15
   8   3  -9 4.00016 4.41813   1
   8  -3  -9-2.36364 3.75200   1
   8  -3  -9 4.87631 4.76720  15
  -8   3   9 1.28723 3.01176  16
   8   3  -8 0.78774 4.67361   1
   8  -3  -8 3.88391 4.75969   1
   8  -3  -8 6.58843 5.40151  15
  -8   3   8 3.57642 2.88830  16
   8   3  -7 6.30874 4.78096   1
   8  -3  -7 3.11441 4.56728   1
  -8   3   7 0.54555 2.50727  16
   8   3  -6 133.616 9.08646  17
   8   3  -6 149.635 11.5193   1
   8  -3  -6 114.924 10.2872   1
  -8  -3   6 146.924 10.1518   3
  -8   3   6 124.424 9.49458   3
   8   3  -5 15.9820 4.12069  17
  -8  -3   5 7.81562 3.54258  13
  -8  -3   5 12.2625 4.24595   3
  -8   3   5 17.3338 4.65907   3
   8   3  -5 9.69736 5.26203   1
   8  -3  -5 17.6080 5.71598   1
  -8  -3   4 129.043 9.20396  13
  -8  -3   4 112.490 9.02379   3
  -8   3   4 118.145 9.22760   3
   8   3  -4 127.132 10.8796   1
   8  -3  -4 119.538 10.9905   1
  -8  -3   3 2.37969 3.32878  13
  -8  -3   3 6.02285 3.92664   3
  -8   3   3 4.02832 3.70902   3
   8   3  -3 2.58317 6.27958   1
   8  -3  -3 5.11654 6.21905   1
  -8  -3   2 454.682 20.1706  13
  -8  -3   2 498.533 21.5192   3
  -8   3   2 508.349 21.5254   3
   8   3  -2 511.758 24.3123   1
   8  -3  -2 517.803 24.1161   1
  -8   3   1 1.44523 2.88925  12
  -8  -3   1-0.62678 3.41661  13
  -8  -3   1 2.10399 3.82299   3
  -8   3   1-1.40087 3.71627   3
  -8   3   0 12.8070 3.69020  12
  -8  -3   0 11.1212 4.18035  13
  -8  -3   0 11.1054 4.81859   3
  -8   3   0 5.91773 4.09399   3
  -8   3  -1 98.3994 7.85770  12
  -8  -3  -1 111.306 9.86652   3
  -8   3  -1 97.6687 9.57146   3
  -8   3  -2 21.7723 4.66833  12
  -8  -3  -2 30.1635 5.30896  12
  -8  -3  -2 23.6871 6.34188   3
  -8   3  -2 32.8369 6.44267   3
  -8   3  -3 8.40115 4.11948  12
  -8  -3  -3 13.4086 4.28388  12
  -8  -3  -3 10.8443 5.93275   3
  -8   3  -3 8.97406 5.08864   3
   8   4 -10 38.5476 6.90723   1
   8  -4 -10 48.9964 7.37519   1
  -8   4  10 50.8018 6.50553  16
   8  -4 -10 41.4755 7.61617  15
   8   4  -9 23.2337 5.72121   1
   8  -4  -9 11.0071 4.67542   1
  -8   4   9 12.3587 4.08052  16
   8  -4  -9 5.91643 5.13447  15
   8   4  -8 12.6515 5.05178   1
   8  -4  -8 5.43695 5.10320   1
   8  -4  -8 16.1740 6.12334  15
  -8   4   8 13.2628 3.74471  16
   8   4  -7 147.209 11.3745   1
   8  -4  -7 118.328 10.4601   1
  -8   4   7 126.584 8.68087  16
   8   4  -7 112.204 8.71654  17
   8  -4  -7 129.790 11.7424  15
   8   4  -6 160.333 10.1072  17
   8   4  -6 137.358 11.2531   1
   8  -4  -6 147.357 11.5084   1
  -8  -4   6 147.472 10.2117   3
  -8   4   6 148.335 10.5994   3
   8   4  -5 16.8036 4.36608  17
   8   4  -5 19.4519 6.17930   1
   8  -4  -5 18.4308 6.02704   1
  -8  -4   5 8.35099 3.99799   3
  -8   4   5 19.9063 4.80263   3
  -8  -4   5 16.7956 4.17370  13
   8   4  -4 410.853 20.9893   1
   8  -4  -4 458.295 21.5224   1
  -8  -4   4 450.527 19.9836   3
  -8   4   4 414.226 19.2446   3
  -8  -4   4 472.426 19.5981  13
  -8  -4   3 68.3441 6.80099   6
  -8  -4   3 74.8676 7.24229  13
  -8  -4   3 81.2443 8.08047   3
  -8   4   3 80.9767 7.90184   3
   8   4  -3 63.9737 9.10215   1
   8  -4  -3 87.3982 10.0200   1
  -8  -4   2 5.03298 3.69433  13
  -8  -4   2 3.36470 3.47419   3
  -8   4   2 6.70301 4.02389   3
   8   4  -2 19.1765 7.17922   1
   8  -4  -2 14.4786 7.42268   1
  -8  -4   1 77.3524 7.61128  13
  -8   4   1 79.1217 6.59658  12
  -8  -4   1 76.1216 7.99698   3
  -8   4   1 72.3109 7.64937   3
  -8   4   0 2.03533 2.88280  12
  -8  -4   0 4.74294 3.59629  13
  -8  -4   0 7.36050 4.16879   3
  -8   4   0 2.93098 3.94257   3
  -8   4  -1 17.2833 4.36124  12
  -8  -4  -1 12.5429 4.91071   3
  -8   4  -1 4.68064 4.20654   3
  -8   4  -2 3.41554 3.30294  12
  -8  -4  -2 5.03951 4.75714   3
  -8   4  -2 5.83257 4.54343   3
  -8   4  -3 108.511 8.55782  12
  -8  -4  -3 114.086 10.9525   3
  -8   4  -3 91.4440 10.0351   3
   8   5 -10 30.2075 6.28321   1
   8  -5 -10 23.9471 6.10398   1
  -8   5  10 18.2718 4.39453  16
   8  -5 -10 29.0435 7.16003  15
   8   5  -9 282.139 16.4157   1
   8  -5  -9 278.230 16.0771   1
  -8   5   9 286.796 14.9655  16
   8  -5  -9 313.650 17.6314  15
   8   5  -8 60.9998 7.96071   1
   8  -5  -8 59.7730 7.86841   1
  -8   5   8 75.1146 7.00627  16
   8  -5  -8 63.9684 8.83546  15
   8   5  -7-0.79204 4.90282   1
   8  -5  -7 1.55724 4.81976   1
   8   5  -7 4.91024 3.68133  17
   8  -5  -7-0.88517 5.13285  15
   8   5  -6 3.58966 3.88796  17
   8   5  -6-0.80039 4.95460   1
   8  -5  -6 8.66694 5.39701   1
  -8  -5   6-0.64051 3.30298   3
  -8   5   6 3.85580 3.54916   3
   8   5  -5 1.76457 3.29144  17
   8   5  -5 9.74812 5.18118   1
   8  -5  -5 2.40533 4.96418   1
  -8  -5   5 5.09827 3.61011   3
  -8   5   5 3.82682 3.47849   3
  -8  -5   5 5.14160 3.50517  13
   8   5  -4 0.58799 3.32928  17
  -8  -5   4-1.27238 3.60218  13
   8   5  -4-1.66666 4.71840   1
  -8  -5   4 1.29099 3.51862   3
  -8   5   4-3.83124 4.07171   3
  -8  -5   3 66.6650 7.17238  13
  -8  -5   3 62.6624 6.93596   6
   8   5  -3 70.4233 9.27352   1
   8  -5  -3 65.4561 9.31516   1
  -8  -5   3 78.3534 7.55773   3
  -8   5   3 67.2292 7.28567   3
  -8  -5   2 109.514 8.99246  13
  -8  -5   2 111.741 8.91878   6
  -8  -5   2 121.151 9.59702   3
  -8   5   2 116.367 9.41287   3
   8   5  -2 122.147 11.9436   1
   8  -5  -2 123.713 11.9463   1
  -8  -5   1 225.262 13.4259  13
  -8   5   1 234.312 11.7793  12
  -8  -5   1 238.764 13.6977   3
  -8   5   1 247.854 14.0523   3
  -8  -5   0 18.2105 4.86888  13
  -8   5   0 21.2575 4.21113  12
  -8  -5   0 27.7442 5.76505   3
  -8   5   0 18.0901 5.34389   3
  -8   5  -1 41.3533 5.27583  12
  -8  -5  -1 31.1242 6.11959   3
  -8   5  -1 40.0286 6.70924   3
  -8   5  -2 26.0358 4.77795  12
  -8  -5  -2 26.6286 6.49825   3
  -8   5  -2 31.9718 6.56510   3
  -8   5  -3-0.59334 3.63543  12
  -8  -5  -3 5.34034 4.65655   3
  -8   5  -3 5.24236 5.46344   3
   8   6 -10 10.3504 6.43581   4
   8   6 -10 17.0297 5.32908   1
   8  -6 -10 11.1172 5.12342   1
  -8   6  10 12.7966 4.03983  16
   8   6  -9 74.9263 8.90803   1
   8  -6  -9 74.1754 8.79037   1
  -8   6   9 80.6916 7.74432  16
   8  -6  -9 86.7576 9.91025  15
   8   6  -8 3.17191 4.65577   1
   8  -6  -8 7.75469 4.65529   1
   8   6  -8 10.0755 4.48899  17
  -8   6   8 8.67494 3.95645  16
   8  -6  -8 8.98791 6.00390  15
   8   6  -7 296.838 16.5716   1
   8  -6  -7 284.392 16.2561   1
   8   6  -7 290.012 15.0601  17
   8  -6  -7 297.755 17.6049  15
   8   6  -6 124.910 9.48263  17
   8   6  -6 118.601 10.7710   1
   8  -6  -6 115.021 10.4675   1
  -8  -6   6 123.698 9.52238   3
  -8   6   6 131.113 9.76354   3
   8   6  -5 122.143 9.18396  17
   8   6  -5 119.361 10.9374   1
   8  -6  -5 143.359 11.5206   1
  -8  -6   5 143.637 10.0038   3
  -8   6   5 103.266 9.04297   3
  -8  -6   5 126.609 9.57028  13
   8   6  -4 187.954 11.5327  17
   8   6  -4 170.636 13.0724   1
   8  -6  -4 216.340 14.1116   1
  -8  -6   4 181.845 11.6621   3
  -8   6   4 202.430 12.0047   3
  -8  -6   4 169.577 11.3125  13
  -8  -6   3 30.7456 5.42370   6
   8   6  -3 16.6064 7.21183   1
   8  -6  -3 30.2863 7.84423   1
  -8  -6   3 31.8408 5.77298   3
  -8   6   3 30.3238 5.79660   3
  -8  -6   3 36.4497 5.55531  13
  -8  -6   2 0.66699 3.63586   6
   8   6  -2 8.31105 6.73374   1
   8  -6  -2 1.82731 6.51370   1
  -8  -6   2 5.31099 4.02466   3
  -8   6   2-3.28929 4.43036   3
  -8  -6   2 3.36653 3.42032  13
  -8  -6   1 132.925 10.1892  13
  -8  -6   1 141.061 10.3695   3
  -8   6   1 133.761 10.2662   3
  -8  -6   1 133.376 10.1635   6
  -8  -6   0 15.9009 4.75559  13
  -8   6   0 19.1884 3.93721  12
  -8  -6   0 11.5688 5.08955   3
  -8   6   0 9.25211 4.37727   3
  -8  -6   0 15.7605 4.75626   6
  -8   6  -1 75.5289 6.83523  12
  -8  -6  -1 79.3542 8.57145   3
  -8   6  -1 83.1029 8.54656   3
  -8  -6  -2 27.1548 6.13170   3
  -8   6  -2 37.7638 6.81892   3
  -8  -6  -3 153.052 12.5195   3
  -8   6  -3 147.973 12.1387   3
   8  -7  -9 121.178 10.8919   1
  -8   7   9 139.483 10.2709  16
   8   7  -9 143.654 11.1967  17
   8  -7  -8 13.1516 5.65213   1
  -8   7   8 10.0308 3.81680  16
   8   7  -8 19.1606 5.40961  17
   8  -7  -8 14.6667 6.54458  15
   8   7  -7 4.75787 4.65235   1
   8  -7  -7 3.10812 4.45405   1
   8   7  -7 2.72367 3.80941  17
   8  -7  -7 5.46077 5.80434  15
   8   7  -6-0.66158 3.79134  17
   8   7  -6 4.00536 4.95856   1
   8  -7  -6 2.36097 4.82141   1
  -8  -7   6-0.63319 3.40581   3
  -8   7   6-0.63616 3.28014   3
   8   7  -5 9.03339 4.12761  17
   8   7  -5 6.48753 4.71382   1
   8  -7  -5 13.6018 5.92861   1
  -8  -7   5 18.1800 4.48141   3
  -8   7   5 11.8733 3.92128   3
  -8  -7   5 16.3944 4.45103  13
   8   7  -4 5.72350 3.89714  17
  -8  -7   4 2.03000 3.43854  13
   8   7  -4 4.18916 5.23955   1
   8  -7  -4 7.46667 5.63578   1
  -8  -7   4 1.25399 3.46367   3
  -8   7   4 4.38283 3.79681   3
  -8  -7   3 9.55519 4.14542  13
  -8  -7   3 9.13314 4.40025   6
   8   7  -3 17.5592 6.45391   1
   8  -7  -3 5.20943 6.09923   1
  -8  -7   3 6.51751 3.74371   3
  -8   7   3 12.8102 4.09222   3
  -8  -7   2 1.38757 3.52567  13
  -8  -7   2 2.85821 3.84473   6
   8   7  -2 13.0018 6.62167   1
   8  -7  -2 13.7723 7.35273   1
  -8  -7   2 1.97845 3.45147   3
  -8   7   2 3.90852 3.59869   3
  -8  -7   1 114.875 9.55779   3
  -8   7   1 131.537 9.91136   3
  -8  -7   1 125.066 10.0146   6
  -8  -7   1 97.0006 8.88546  13
  -8  -7   0 13.5666 5.02561   3
  -8  -7   0 14.9725 4.92379   6
  -8  -7   0 13.3966 4.66877  13
  -8   7   0 14.6822 3.62890  12
  -8  -7  -1 158.758 11.7522   3
  -8  -7  -1 157.324 11.6229   6
  -8   7  -1 155.799 9.79602  12
  -8  -7  -2 4.05923 4.60205   3
  -8   7  -2 11.3300 3.82141  12
  -8   8   9 124.732 9.71692  16
   8   8  -9 115.656 10.5533  17
   8   8  -8 9.68954 4.66618  17
  -8   8   8 7.62989 3.73661  16
   8  -8  -8 10.2551 6.49535  15
   8   8  -7 350.772 18.1236  17
   8  -8  -7 441.604 21.7668  15
   8   8  -6-0.69107 4.18942  17
   8  -8  -6 1.81164 5.72021  15
   8   8  -5 105.612 9.07164  17
  -8  -8   5 134.120 9.99901  13
   8   8  -4 6.60171 4.04588  17
  -8  -8   4 2.08922 3.64476  13
  -8  -8   3 140.543 10.4601  13
   8   8  -3 133.565 9.88933  17
  -8  -8   3 127.554 10.4903   6
  -8  -8   2 2.85721 3.94516  13
  -8  -8   2 2.29161 4.16443   6
  -8  -8   1 69.6816 7.87158  13
  -8  -8   1 81.1563 8.62806   6
  -8  -8   0 1.52800 4.05409  13
  -8  -8   0 3.93344 4.50882   6
  -8   8  -1 127.453 8.82327  12
  -8  -8  -1 113.877 10.2659   6
   8   9  -8-0.77916 4.51805  17
   8   9  -7-2.97994 4.51709  17
   8  -9  -7-3.69163 5.77133  15
   8   9  -6 3.59224 4.16685  17
   8  -9  -6 2.70907 5.70321  15
   8   9  -5 20.9897 5.32315  17
  -8  -9   5 26.6612 5.44294  13
   8   9  -4 2.73378 3.82229  17
  -8  -9   4-3.57678 3.89945  13
  -8  -9   3-0.72094 3.77183  13
   8   9  -3 3.39110 3.88696  17
  -8  -9   3 4.02822 4.44922   6
  -8  -9   2 7.35735 5.16317   6
  -8  -9   2 1.46578 3.66718  13
  -8  -9   1 319.300 17.9245   6
  -8  -9   1 345.620 17.6675  13
  -8  -9   0 10.8498 5.33209   6
  -8  -9   0 14.0956 5.28394  13
  -8   9  -1 128.259 9.09626  12
   8 -10  -7 48.0648 8.51031  15
   8  10  -6 4.47315 4.32590  17
   8 -10  -6 9.01164 5.96538  15
  -8 -10   5 323.847 16.9972  13
   8  10  -5 302.398 16.5802  17
   8 -10  -5 352.565 19.3252  15
   8  10  -4 2.82201 4.18498  17
  -8 -10   4-1.46422 4.75732  13
  -8 -10   3 115.260 9.60377  13
   8  10  -3 96.1185 9.09816  17
  -8 -10   3 95.7145 9.90816   6
  -8 -10   2 15.0338 5.25261  13
  -8 -10   2 19.1001 5.96319   6
  -8 -10   1 14.9131 5.76633   6
   8 -11  -6 9.84196 6.03103  15
   8 -11  -5-1.73892 6.15089  15
   9   0 -10-3.99555 5.33597  15
   9   0  -9 147.228 11.9844  15
   9   0  -9 177.017 13.3937   1
   9   0  -8 0.84298 5.27109  15
   9   0  -8-3.54524 5.48630   1
  -9   0   7 69.8504 7.97728   3
   9   0  -7 95.5163 9.89468   1
  -9   0   6-3.61141 4.28475   3
   9   0  -6 1.80775 5.36187   1
  -9   0   5 74.3910 8.18079   3
   9   0  -5 70.8694 9.40680   1
  -9   0   4-3.69488 5.18711   3
   9   0  -4 1.89834 6.76719   1
  -9   0   3 420.984 19.9122   3
   9   0  -3 379.929 21.7824   1
  -9   0   2 0.76020 3.97752   3
   9   0  -2 9.32939 7.44710   1
  -9   0   1 0.59130 3.80673  12
  -9   0   1 2.35894 4.17203   3
  -9   0   0 0.62417 3.57700  12
  -9   0   0 0.82074 4.70344   3
  -9   0  -1 258.684 14.0761  12
   9  -1  -9 94.5236 9.96952  15
   9   1  -9 65.0552 8.29777  15
   9   1  -8 28.9485 6.46247  15
   9  -1  -8 21.9946 6.19943  15
   9   1  -8 14.2138 6.00787   1
   9  -1  -8 19.4395 6.02691   1
  -9  -1   7 5.81726 4.01556   3
  -9   1   7-0.72703 3.52126   3
   9   1  -7-3.57838 5.06528   1
   9  -1  -7-2.67301 5.68153   1
  -9  -1   6 23.1018 5.14251   3
  -9   1   6 20.8196 4.95420   3
   9   1  -6 26.2838 6.63635   1
   9  -1  -6 22.5605 6.55953   1
  -9  -1   5-0.72195 4.28277   3
  -9   1   5 2.16603 4.18686   3
   9   1  -5 6.45305 5.70643   1
   9  -1  -5 1.83829 5.32991   1
  -9  -1   4 0.73921 4.38514   3
  -9   1   4-0.73864 4.47808   3
   9   1  -4 5.70879 6.23981   1
   9  -1  -4 7.58525 6.33016   1
  -9  -1   3 302.614 16.2255   3
  -9   1   3 296.639 15.9926   3
   9   1  -3 256.669 17.5918   1
   9  -1  -3 269.898 17.9875   1
  -9  -1   2 1.51865 4.03529   3
  -9   1   2 15.9557 5.07770   3
   9   1  -2 4.15907 7.06609   1
  -9   1   1 517.487 20.7281  12
  -9  -1   1 462.104 20.2463  12
  -9  -1   1 490.729 22.4737   3
  -9   1   1 491.187 22.6162   3
  -9   1   0 40.1948 5.66436  12
  -9  -1   0 44.2963 5.95787  12
  -9  -1   0 38.5123 6.83592   3
  -9   1   0 31.1689 6.40583   3
  -9   1  -1 17.3099 4.89559  12
  -9  -1  -1 15.2744 4.68082  12
   9  -2  -9 124.202 11.5155  15
   9  -2  -8 1.82164 5.69543  15
   9   2  -8-3.56442 5.84411   1
   9  -2  -8-3.52747 5.83586   1
  -9  -2   7 34.1635 5.92409   3
  -9   2   7 46.5086 6.16181   3
   9   2  -7 23.3303 6.45974   1
   9  -2  -7 30.2449 6.73455   1
  -9  -2   6 88.9646 8.59766   3
  -9   2   6 83.9349 8.38366   3
   9   2  -6 73.6234 9.45074   1
   9  -2  -6 79.3797 9.65031   1
  -9  -2   5 98.0346 8.41030  13
  -9  -2   5 91.8281 8.76431   3
  -9   2   5 92.4820 8.80453   3
   9   2  -5 83.1847 10.2068   1
   9  -2  -5 95.4972 10.5580   1
  -9  -2   4-1.87220 3.70261  13
  -9   2   4-4.38188 4.96098   3
   9   2  -4-4.77219 7.01102   1
   9  -2  -4 0.94883 6.27913   1
  -9  -2   3 161.057 10.9149  13
  -9  -2   3 186.656 12.6411   3
  -9   2   3 190.300 12.6158   3
   9   2  -3 194.087 15.1357   1
   9  -2  -3 172.228 14.4899   1
  -9  -2   2-1.28190 3.49395  13
  -9  -2   2 3.03188 4.39523   3
  -9   2   2 1.51587 4.13161   3
   9   2  -2 2.08717 7.60978   1
   9  -2  -2 8.30538 8.05570   1
  -9  -2   1 14.8821 5.20102   3
  -9   2   1 18.0252 5.60383   3
  -9   2   0 10.1100 4.11325  12
  -9  -2   0 3.26885 4.63246   3
  -9   2   0 12.2639 5.26801   3
  -9   2  -1 164.024 10.7052  12
  -9  -2  -1 152.166 10.9085  12
   9   3  -8 126.890 11.5468   1
   9  -3  -8 107.463 10.8223   1
  -9  -3   7 9.43748 4.25905   3
  -9   3   7 3.63228 3.69121   3
   9   3  -7-3.60088 5.68549   1
   9  -3  -7 1.77649 5.26965   1
  -9  -3   6 9.31749 4.07141   3
  -9   3   6 10.0287 4.06919   3
   9   3  -6 18.2175 6.29940   1
   9  -3  -6 20.7140 6.67108   1
  -9  -3   5 1.30952 3.66228  13
  -9  -3   5-5.73276 5.37713   3
  -9   3   5-5.00922 5.14111   3
   9   3  -5 0.92636 5.67557   1
   9  -3  -5 5.50450 5.85026   1
  -9  -3   4 189.642 11.9228  13
  -9  -3   4 196.455 12.8307   3
  -9   3   4 188.084 12.4323   3
   9   3  -4 155.151 13.7710   1
   9  -3  -4 176.589 14.1973   1
  -9  -3   3 193.260 12.2703  13
  -9  -3   3 195.996 12.9776   3
  -9   3   3 218.959 13.5261   3
   9   3  -3 218.714 16.0438   1
   9  -3  -3 198.146 15.3163   1
  -9  -3   2 62.5254 7.04464  13
  -9  -3   2 64.1867 7.72330   3
  -9   3   2 55.0893 7.18052   3
   9   3  -2 67.0308 10.7211   1
   9  -3  -2 57.2075 10.1610   1
  -9  -3   1 156.648 10.9799  13
  -9  -3   1 159.868 12.0448   3
  -9   3   1 168.288 12.1917   3
  -9   3   0 0.58508 3.43212  12
  -9  -3   0 0.71018 4.02137  13
  -9  -3   0 4.87917 4.82398   3
  -9   3   0 2.43678 4.42787   3
  -9   3  -1 69.8075 7.09290  12
   9  -4  -8 12.5317 6.55131  15
   9   4  -8 1.78976 5.25370   1
   9  -4  -8 14.0757 6.27571   1
  -9  -4   7 104.091 9.17352   3
  -9   4   7 99.2133 9.14439   3
   9   4  -7 90.1809 9.77511   1
   9  -4  -7 91.4612 10.3153   1
  -9  -4   6 366.725 18.3369   3
  -9   4   6 414.887 19.2870   3
   9   4  -6 397.753 21.0530   1
   9  -4  -6 380.656 20.4522   1
  -9  -4   5 128.548 10.0425  13
  -9  -4   5 118.220 10.0911   3
  -9   4   5 133.625 10.3061   3
   9   4  -5 116.233 11.6077   1
   9  -4  -5 131.458 11.9931   1
  -9  -4   4 3.35363 3.65621  13
  -9  -4   4 1.44398 4.60386   3
  -9   4   4-0.71986 4.72088   3
   9   4  -4-3.84558 7.60386   1
  -9  -4   3 72.9847 7.48958  13
  -9  -4   3 69.8040 8.49212   3
  -9   4   3 69.5504 8.11215   3
   9   4  -3 64.1258 10.3376   1
   9  -4  -3 58.5738 10.2080   1
  -9  -4   2-0.68833 3.65208  13
  -9  -4   2-3.00949 4.31171   3
  -9   4   2-0.74837 4.02542   3
   9   4  -2 4.21524 7.90707   1
   9  -4  -2 2.08828 7.55760   1
  -9  -4   1 23.2707 5.92857   3
  -9   4   1 30.1542 6.21796   3
  -9  -4   1 15.5493 4.95480  13
  -9  -4   0-4.04133 5.44344   3
  -9   4   0-2.41433 5.27791   3
  -9   4   0-1.71986 3.24642  12
  -9  -4   0 0.73392 4.00096  13
  -9   4  -1 80.3173 7.68082  12
   9   5  -8 101.298 10.4245   1
   9  -5  -8 71.1760 9.39726   1
   9   5  -7 3.61402 5.64940   1
   9  -5  -7-0.88708 5.26207   1
  -9  -5   7 2.88145 4.02875   3
   9  -5  -7-3.94020 6.74714  15
   9   5  -6 28.9377 5.47815  17
  -9  -5   6 16.3362 5.13212   3
  -9   5   6 19.7878 5.22011   3
   9   5  -6 14.5977 5.89913   1
   9  -5  -6 26.9357 7.03357   1
  -9  -5   5 30.6809 5.89296  13
  -9  -5   5 13.4959 5.22848   3
  -9   5   5 27.4670 5.78594   3
   9   5  -5 31.7074 7.17725   1
   9  -5  -5 46.9353 8.24989   1
  -9  -5   4 358.522 18.0320  13
  -9  -5   4 386.886 18.8194   3
  -9   5   4 400.217 18.8872   3
   9   5  -4 394.746 21.4714   1
   9  -5  -4 385.596 21.3291   1
  -9  -5   3 62.8960 7.30390  13
   9   5  -3 51.3050 9.61167   1
   9  -5  -3 33.8180 9.21674   1
  -9  -5   3 69.3538 8.15678   3
  -9   5   3 54.1634 7.53946   3
  -9  -5   2 56.8361 7.15854  13
  -9  -5   2 70.0496 7.68923   6
   9  -5  -2 89.0876 11.6887   1
  -9  -5   2 74.6834 8.19539   3
  -9   5   2 77.2116 8.09641   3
  -9  -5   1 164.090 11.7044  13
  -9  -5   1 177.704 12.2641   6
  -9  -5   1 163.983 12.0698   3
  -9   5   1 182.590 12.5119   3
  -9  -5   0 14.4312 5.32489   3
  -9   5   0 19.0763 6.22425   3
  -9  -5   0 18.9037 5.41005  13
   9   6  -8 43.8650 8.00538   1
   9  -6  -8 46.4547 7.91813   1
   9   6  -7 101.992 10.7537   1
   9  -6  -7 110.609 10.8423   1
   9   6  -7 98.0744 8.79750  17
   9   6  -6 283.809 15.4167  17
  -9  -6   6 299.902 16.1402  13
  -9  -6   6 296.975 15.9132   3
  -9   6   6 292.024 15.7860   3
   9   6  -6 320.768 18.3395   1
   9  -6  -6 312.555 18.2207   1
  -9  -6   5 76.0252 7.88463  13
  -9  -6   5 66.7832 7.68675   3
  -9   6   5 69.1405 7.71400   3
   9   6  -5 60.6884 9.62999   1
   9  -6  -5 79.2391 10.0511   1
  -9  -6   4 20.6878 5.29258  13
  -9  -6   4 19.8938 5.34569   3
  -9   6   4 9.83171 4.70505   3
   9   6  -4 11.6090 7.31973   1
   9  -6  -4 10.4948 7.50905   1
  -9  -6   3 14.3712 4.77491  13
   9   6  -3 25.2072 8.60937   1
   9  -6  -3 25.9401 9.09363   1
  -9  -6   3 12.4668 4.91529   3
  -9   6   3 17.4611 5.20518   3
  -9  -6   2-5.19870 4.69026   3
  -9   6   2-4.41264 5.51850   3
  -9  -6   2-0.73565 4.06284   6
  -9  -6   2 2.19551 3.48541  13
  -9  -6   1-1.52621 4.47671   3
  -9   6   1 3.01387 4.31860   3
  -9  -6   1 7.57745 4.83242   6
  -9  -6   1 3.75377 4.14658  13
  -9  -6   0-4.77159 5.62646   3
  -9   6   0-1.56485 5.17820   3
   9   7  -7 3.46614 4.11316  17
   9   7  -6 3.41114 4.22298  17
  -9  -7   6-1.38902 4.02722   3
   9   7  -5 28.5158 5.83770  17
  -9  -7   5 20.8568 5.48054   3
  -9  -7   5 37.5905 6.22809  13
  -9  -7   4 205.430 12.7809   3
  -9  -7   4 190.581 12.5172  13
  -9  -7   3 6.47836 4.63549   3
  -9  -7   3 2.95749 4.33855  13
  -9  -7   2 48.1674 7.14437   6
  -9  -7   2 44.4382 6.75773   3
  -9  -7   1 48.2969 7.20726   3
  -9  -8   2-3.28947 5.29478   6
   0   0   0    0.00    0.00   0

TITL m8sol_2_auto in P2(1)/n
REM P2(1)/n (#14 in standard setting)
CELL 0.71073   7.890878  14.981835  10.855479  90.0000 109.3697  90.0000
ZERR   14.00   0.000266   0.000433   0.000386   0.0000   0.0039   0.0000
LATT  1
SYMM -x+1/2, y+1/2,-z+1/2
SFAC C H N O S Cu
UNIT 14.00 14.00 14.00 14.00 14.00 14.00
REM  CrysAlisPro recorded range (K): Min=149.9; max=150.1; aver:150.0
TEMP -123
TREF
HKLF 4
END
;
_shelx_hkl_checksum   62187
